# generated using pymatgen
data_Li2Cr3CuO8
_symmetry_space_group_name_H-M   'P 1'
_cell_length_a   5.90467757
_cell_length_b   5.90467757
_cell_length_c   14.51075535
_cell_angle_alpha   90.00000000
_cell_angle_beta   90.00000000
_cell_angle_gamma   120.00000000
_symmetry_Int_Tables_number   1
_chemical_formula_structural   Li2Cr3CuO8
_chemical_formula_sum   'Li6 Cr9 Cu3 O24'
_cell_volume   438.14012327
_cell_formula_units_Z   3
loop_
 _symmetry_equiv_pos_site_id
 _symmetry_equiv_pos_as_xyz
  1  'x, y, z'
loop_
 _atom_site_type_symbol
 _atom_site_label
 _atom_site_symmetry_multiplicity
 _atom_site_fract_x
 _atom_site_fract_y
 _atom_site_fract_z
 _atom_site_occupancy
  Li  Li0  1  0.00000000  0.00000000  0.12681500  1
  Li  Li1  1  0.66666667  0.33333333  0.20651833  1
  Li  Li2  1  0.66666667  0.33333333  0.46014833  1
  Li  Li3  1  0.33333333  0.66666667  0.53985167  1
  Li  Li4  1  0.33333333  0.66666667  0.79348167  1
  Li  Li5  1  0.00000000  0.00000000  0.87318500  1
  Cr  Cr6  1  0.00000000  0.50000000  0.00000000  1
  Cr  Cr7  1  0.50000000  0.00000000  0.00000000  1
  Cr  Cr8  1  0.50000000  0.50000000  0.00000000  1
  Cr  Cr9  1  0.66666667  0.83333333  0.33333333  1
  Cr  Cr10  1  0.16666667  0.33333333  0.33333333  1
  Cr  Cr11  1  0.16666667  0.83333333  0.33333333  1
  Cr  Cr12  1  0.33333333  0.16666667  0.66666667  1
  Cr  Cr13  1  0.83333333  0.66666667  0.66666667  1
  Cr  Cr14  1  0.83333333  0.16666667  0.66666667  1
  Cu  Cu15  1  0.33333333  0.66666667  0.16666667  1
  Cu  Cu16  1  1.00000000  1.00000000  0.50000000  1
  Cu  Cu17  1  0.66666667  0.33333333  0.83333333  1
  O  O18  1  0.00000000  0.00000000  0.26086300  1
  O  O19  1  0.18271167  0.81728833  0.07285133  1
  O  O20  1  0.18271167  0.36542333  0.07285133  1
  O  O21  1  0.63457667  0.81728833  0.07285133  1
  O  O22  1  0.03209000  0.51604500  0.26048200  1
  O  O23  1  0.48395500  0.96791000  0.26048200  1
  O  O24  1  0.48395500  0.51604500  0.26048200  1
  O  O25  1  0.66666667  0.33333333  0.07247033  1
  O  O26  1  0.66666667  0.33333333  0.59419633  1
  O  O27  1  0.84937833  0.15062167  0.40618467  1
  O  O28  1  0.84937833  0.69875667  0.40618467  1
  O  O29  1  0.30124333  0.15062167  0.40618467  1
  O  O30  1  0.69875667  0.84937833  0.59381533  1
  O  O31  1  0.15062167  0.30124333  0.59381533  1
  O  O32  1  0.15062167  0.84937833  0.59381533  1
  O  O33  1  0.33333333  0.66666667  0.40580367  1
  O  O34  1  0.33333333  0.66666667  0.92752967  1
  O  O35  1  0.51604500  0.48395500  0.73951800  1
  O  O36  1  0.51604500  0.03209000  0.73951800  1
  O  O37  1  0.96791000  0.48395500  0.73951800  1
  O  O38  1  0.36542333  0.18271167  0.92714867  1
  O  O39  1  0.81728833  0.63457667  0.92714867  1
  O  O40  1  0.81728833  0.18271167  0.92714867  1
  O  O41  1  0.00000000  0.00000000  0.73913700  1
