# generated using pymatgen
data_Co3Sb(PO4)4
_symmetry_space_group_name_H-M   'P 1'
_cell_length_a   4.90420300
_cell_length_b   5.98397400
_cell_length_c   9.96937574
_cell_angle_alpha   90.00000000
_cell_angle_beta   90.16379480
_cell_angle_gamma   90.00000000
_symmetry_Int_Tables_number   1
_chemical_formula_structural   Co3Sb(PO4)4
_chemical_formula_sum   'Co3 Sb1 P4 O16'
_cell_volume   292.56631823
_cell_formula_units_Z   1
loop_
 _symmetry_equiv_pos_site_id
 _symmetry_equiv_pos_as_xyz
  1  'x, y, z'
loop_
 _atom_site_type_symbol
 _atom_site_label
 _atom_site_symmetry_multiplicity
 _atom_site_fract_x
 _atom_site_fract_y
 _atom_site_fract_z
 _atom_site_occupancy
  Co  Co0  1  0.03027600  0.00000000  0.73274000  1
  Co  Co1  1  0.45353600  0.00000000  0.22121000  1
  Co  Co2  1  0.54848200  0.50000000  0.76522300  1
  Sb  Sb3  1  0.95929100  0.50000000  0.28422800  1
  P  P4  1  0.09523500  0.50000000  0.60267500  1
  P  P5  1  0.38733700  0.50000000  0.09519400  1
  P  P6  1  0.59719300  0.00000000  0.89759800  1
  P  P7  1  0.92666000  0.00000000  0.41241600  1
  O  O8  1  0.18858600  0.50000000  0.44353200  1
  O  O9  1  0.23711500  0.70538100  0.66561300  1
  O  O10  1  0.23711500  0.29461900  0.66561300  1
  O  O11  1  0.22846500  0.00000000  0.38448400  1
  O  O12  1  0.28703100  0.00000000  0.87143900  1
  O  O13  1  0.23265900  0.69688500  0.17337300  1
  O  O14  1  0.23265900  0.30311500  0.17337300  1
  O  O15  1  0.34669400  0.50000000  0.94742600  1
  O  O16  1  0.64223500  0.00000000  0.04977400  1
  O  O17  1  0.74577000  0.20155900  0.82887100  1
  O  O18  1  0.74577000  0.79844100  0.82887100  1
  O  O19  1  0.69993500  0.50000000  0.13045600  1
  O  O20  1  0.78730400  0.50000000  0.60137100  1
  O  O21  1  0.77329100  0.20301200  0.33312600  1
  O  O22  1  0.77329100  0.79698800  0.33312600  1
  O  O23  1  0.84406900  0.00000000  0.55827000  1
