# generated using pymatgen
data_V2OF7
_symmetry_space_group_name_H-M   'P 1'
_cell_length_a   5.57907100
_cell_length_b   5.66988000
_cell_length_c   11.20416192
_cell_angle_alpha   90.00000000
_cell_angle_beta   101.85627623
_cell_angle_gamma   90.00000000
_symmetry_Int_Tables_number   1
_chemical_formula_structural   V2OF7
_chemical_formula_sum   'V4 O2 F14'
_cell_volume   346.85635783
_cell_formula_units_Z   2
loop_
 _symmetry_equiv_pos_site_id
 _symmetry_equiv_pos_as_xyz
  1  'x, y, z'
loop_
 _atom_site_type_symbol
 _atom_site_label
 _atom_site_symmetry_multiplicity
 _atom_site_fract_x
 _atom_site_fract_y
 _atom_site_fract_z
 _atom_site_occupancy
  V  V0  1  0.13300600  0.50053000  0.19165900  1
  V  V1  1  0.13300600  0.49947000  0.69165900  1
  V  V2  1  0.84976300  0.98157300  0.31225000  1
  V  V3  1  0.84976300  0.01842700  0.81225000  1
  O  O4  1  0.95678600  0.69916300  0.24804900  1
  O  O5  1  0.95678600  0.30083700  0.74804900  1
  F  F6  1  0.62141200  0.86826900  0.70669000  1
  F  F7  1  0.63563800  0.13256900  0.89550100  1
  F  F8  1  0.33846800  0.35077300  0.61850500  1
  F  F9  1  0.07471900  0.17345100  0.21835400  1
  F  F10  1  0.36477700  0.54098200  0.82463300  1
  F  F11  1  0.07251100  0.05834700  0.44177600  1
  F  F12  1  0.93099000  0.44422800  0.04936300  1
  F  F13  1  0.07471900  0.82654900  0.71835400  1
  F  F14  1  0.07251100  0.94165300  0.94177600  1
  F  F15  1  0.93099000  0.55577200  0.54936300  1
  F  F16  1  0.62141200  0.13173100  0.20669000  1
  F  F17  1  0.63563800  0.86743100  0.39550100  1
  F  F18  1  0.33846800  0.64922700  0.11850500  1
  F  F19  1  0.36477700  0.45901800  0.32463300  1
