# generated using pymatgen
data_Li2MnFe(BO3)2
_symmetry_space_group_name_H-M   'P 1'
_cell_length_a   5.24411087
_cell_length_b   9.07025540
_cell_length_c   10.43001731
_cell_angle_alpha   90.00000000
_cell_angle_beta   91.79209939
_cell_angle_gamma   90.00000000
_symmetry_Int_Tables_number   1
_chemical_formula_structural   Li2MnFe(BO3)2
_chemical_formula_sum   'Li8 Mn4 Fe4 B8 O24'
_cell_volume   495.86555029
_cell_formula_units_Z   4
loop_
 _symmetry_equiv_pos_site_id
 _symmetry_equiv_pos_as_xyz
  1  'x, y, z'
loop_
 _atom_site_type_symbol
 _atom_site_label
 _atom_site_symmetry_multiplicity
 _atom_site_fract_x
 _atom_site_fract_y
 _atom_site_fract_z
 _atom_site_occupancy
  Li  Li0  1  0.83482200  0.51245200  0.33282800  1
  Li  Li1  1  0.83482200  0.48754800  0.83282800  1
  Li  Li2  1  0.15891350  0.50697750  0.58227700  1
  Li  Li3  1  0.15891350  0.49302250  0.08227700  1
  Li  Li4  1  0.33482200  0.01245200  0.33282800  1
  Li  Li5  1  0.33482200  0.98754800  0.83282800  1
  Li  Li6  1  0.65891350  0.00697750  0.58227700  1
  Li  Li7  1  0.65891350  0.99302250  0.08227700  1
  Mn  Mn8  1  0.33771150  0.33854350  0.36671600  1
  Mn  Mn9  1  0.33771150  0.66145650  0.86671600  1
  Mn  Mn10  1  0.83771150  0.83854350  0.36671600  1
  Mn  Mn11  1  0.83771150  0.16145650  0.86671600  1
  Fe  Fe12  1  0.16239850  0.83690050  0.11647100  1
  Fe  Fe13  1  0.66239850  0.66309950  0.61647100  1
  Fe  Fe14  1  0.66239850  0.33690050  0.11647100  1
  Fe  Fe15  1  0.16239850  0.16309950  0.61647100  1
  B  B16  1  0.83171150  0.82862150  0.87437300  1
  B  B17  1  0.83171150  0.17137850  0.37437300  1
  B  B18  1  0.16243400  0.83176900  0.62383300  1
  B  B19  1  0.16243400  0.16823100  0.12383300  1
  B  B20  1  0.33171150  0.32862150  0.87437300  1
  B  B21  1  0.33171150  0.67137850  0.37437300  1
  B  B22  1  0.66243400  0.33176900  0.62383300  1
  B  B23  1  0.66243400  0.66823100  0.12383300  1
  O  O24  1  0.90673800  0.83968300  0.58453500  1
  O  O25  1  0.90673800  0.16031700  0.08453500  1
  O  O26  1  0.09294000  0.83938400  0.90603000  1
  O  O27  1  0.09294000  0.16061600  0.40603000  1
  O  O28  1  0.72883000  0.69455500  0.83265100  1
  O  O29  1  0.72883000  0.30544500  0.33265100  1
  O  O30  1  0.27651750  0.69602950  0.65334800  1
  O  O31  1  0.27651750  0.30397050  0.15334800  1
  O  O32  1  0.80870100  0.54036100  0.13665300  1
  O  O33  1  0.80870100  0.45963900  0.63665300  1
  O  O34  1  0.17857950  0.54840950  0.38838300  1
  O  O35  1  0.17857950  0.45159050  0.88838300  1
  O  O36  1  0.40673800  0.33968300  0.58453500  1
  O  O37  1  0.40673800  0.66031700  0.08453500  1
  O  O38  1  0.59294000  0.33938400  0.90603000  1
  O  O39  1  0.59294000  0.66061600  0.40603000  1
  O  O40  1  0.22883000  0.19455500  0.83265100  1
  O  O41  1  0.22883000  0.80544500  0.33265100  1
  O  O42  1  0.77651750  0.19602950  0.65334800  1
  O  O43  1  0.77651750  0.80397050  0.15334800  1
  O  O44  1  0.30870100  0.04036100  0.13665300  1
  O  O45  1  0.30870100  0.95963900  0.63665300  1
  O  O46  1  0.67857950  0.04840950  0.38838300  1
  O  O47  1  0.67857950  0.95159050  0.88838300  1
