# generated using pymatgen
data_Li4Mn(OF)2
_symmetry_space_group_name_H-M   'P 1'
_cell_length_a   6.08190469
_cell_length_b   5.02634000
_cell_length_c   6.12674061
_cell_angle_alpha   90.00000000
_cell_angle_beta   100.50618991
_cell_angle_gamma   90.00000000
_symmetry_Int_Tables_number   1
_chemical_formula_structural   Li4Mn(OF)2
_chemical_formula_sum   'Li8 Mn2 O4 F4'
_cell_volume   184.15282719
_cell_formula_units_Z   2
loop_
 _symmetry_equiv_pos_site_id
 _symmetry_equiv_pos_as_xyz
  1  'x, y, z'
loop_
 _atom_site_type_symbol
 _atom_site_label
 _atom_site_symmetry_multiplicity
 _atom_site_fract_x
 _atom_site_fract_y
 _atom_site_fract_z
 _atom_site_occupancy
  Li  Li0  1  0.16445450  0.47555200  0.42271250  1
  Li  Li1  1  0.83554550  0.97555200  0.07728750  1
  Li  Li2  1  0.16445450  0.02444800  0.92271250  1
  Li  Li3  1  0.83554550  0.52444800  0.57728750  1
  Li  Li4  1  0.39048050  0.99195000  0.29643150  1
  Li  Li5  1  0.60951950  0.49195000  0.20356850  1
  Li  Li6  1  0.39048050  0.50805000  0.79643150  1
  Li  Li7  1  0.60951950  0.00805000  0.70356850  1
  Mn  Mn8  1  0.00000000  0.50000000  0.00000000  1
  Mn  Mn9  1  0.00000000  0.00000000  0.50000000  1
  O  O10  1  0.88313350  0.68355400  0.29411250  1
  O  O11  1  0.11686650  0.18355400  0.20588750  1
  O  O12  1  0.88313350  0.81644600  0.79411250  1
  O  O13  1  0.11686650  0.31644600  0.70588750  1
  F  F14  1  0.62096650  0.23503300  0.44687750  1
  F  F15  1  0.37903350  0.73503300  0.05312250  1
  F  F16  1  0.62096650  0.26496700  0.94687750  1
  F  F17  1  0.37903350  0.76496700  0.55312250  1
