# generated using pymatgen
data_LiCr(PO3)4
_symmetry_space_group_name_H-M   'P 1'
_cell_length_a   11.77361400
_cell_length_b   8.26939600
_cell_length_c   10.01932883
_cell_angle_alpha   90.00000000
_cell_angle_beta   119.17237581
_cell_angle_gamma   90.00000000
_symmetry_Int_Tables_number   1
_chemical_formula_structural   LiCr(PO3)4
_chemical_formula_sum   'Li4 Cr4 P16 O48'
_cell_volume   851.75491312
_cell_formula_units_Z   4
loop_
 _symmetry_equiv_pos_site_id
 _symmetry_equiv_pos_as_xyz
  1  'x, y, z'
loop_
 _atom_site_type_symbol
 _atom_site_label
 _atom_site_symmetry_multiplicity
 _atom_site_fract_x
 _atom_site_fract_y
 _atom_site_fract_z
 _atom_site_occupancy
  Li  Li0  1  0.25000000  0.25000000  0.50000000  1
  Li  Li1  1  0.25000000  0.75000000  0.00000000  1
  Li  Li2  1  0.75000000  0.75000000  0.50000000  1
  Li  Li3  1  0.75000000  0.25000000  0.00000000  1
  Cr  Cr4  1  0.00000000  0.94655100  0.75000000  1
  Cr  Cr5  1  0.50000000  0.55344900  0.25000000  1
  Cr  Cr6  1  0.50000000  0.44655100  0.75000000  1
  Cr  Cr7  1  0.00000000  0.05344900  0.25000000  1
  P  P8  1  0.01130750  0.74295250  0.47797600  1
  P  P9  1  0.20287200  0.51241300  0.69802000  1
  P  P10  1  0.29712800  0.01241300  0.80198000  1
  P  P11  1  0.98869250  0.74295250  0.02202400  1
  P  P12  1  0.51130750  0.75704750  0.97797600  1
  P  P13  1  0.20287200  0.48758700  0.19802000  1
  P  P14  1  0.29712800  0.98758700  0.30198000  1
  P  P15  1  0.48869250  0.75704750  0.52202400  1
  P  P16  1  0.51130750  0.24295250  0.47797600  1
  P  P17  1  0.70287200  0.01241300  0.69802000  1
  P  P18  1  0.79712800  0.51241300  0.80198000  1
  P  P19  1  0.48869250  0.24295250  0.02202400  1
  P  P20  1  0.01130750  0.25704750  0.97797600  1
  P  P21  1  0.70287200  0.98758700  0.19802000  1
  P  P22  1  0.79712800  0.48758700  0.30198000  1
  P  P23  1  0.98869250  0.25704750  0.52202400  1
  O  O24  1  0.96106650  0.77054050  0.58967800  1
  O  O25  1  0.76938350  0.42009250  0.15237500  1
  O  O26  1  0.19264700  0.92762300  0.81684200  1
  O  O27  1  0.91603900  0.62075800  0.34779200  1
  O  O28  1  0.14516800  0.64398800  0.55964300  1
  O  O29  1  0.03521800  0.88539400  0.40415600  1
  O  O30  1  0.35483200  0.14398800  0.94035700  1
  O  O31  1  0.26938350  0.07990750  0.65237500  1
  O  O32  1  0.96106650  0.22945950  0.08967800  1
  O  O33  1  0.96478200  0.88539400  0.09584400  1
  O  O34  1  0.30735300  0.42762300  0.68315800  1
  O  O35  1  0.41603900  0.87924200  0.84779200  1
  O  O36  1  0.08396100  0.62075800  0.15220800  1
  O  O37  1  0.19264700  0.07237700  0.31684200  1
  O  O38  1  0.53521800  0.61460600  0.90415600  1
  O  O39  1  0.53893350  0.27054050  0.91032200  1
  O  O40  1  0.23061650  0.42009250  0.34762500  1
  O  O41  1  0.14516800  0.35601200  0.05964300  1
  O  O42  1  0.46478200  0.61460600  0.59584400  1
  O  O43  1  0.35483200  0.85601200  0.44035700  1
  O  O44  1  0.58396100  0.87924200  0.65220800  1
  O  O45  1  0.30735300  0.57237700  0.18315800  1
  O  O46  1  0.73061650  0.07990750  0.84762500  1
  O  O47  1  0.53893350  0.72945950  0.41032200  1
  O  O48  1  0.46106650  0.27054050  0.58967800  1
  O  O49  1  0.26938350  0.92009250  0.15237500  1
  O  O50  1  0.69264700  0.42762300  0.81684200  1
  O  O51  1  0.41603900  0.12075800  0.34779200  1
  O  O52  1  0.64516800  0.14398800  0.55964300  1
  O  O53  1  0.53521800  0.38539400  0.40415600  1
  O  O54  1  0.85483200  0.64398800  0.94035700  1
  O  O55  1  0.76938350  0.57990750  0.65237500  1
  O  O56  1  0.46106650  0.72945950  0.08967800  1
  O  O57  1  0.46478200  0.38539400  0.09584400  1
  O  O58  1  0.80735300  0.92762300  0.68315800  1
  O  O59  1  0.91603900  0.37924200  0.84779200  1
  O  O60  1  0.58396100  0.12075800  0.15220800  1
  O  O61  1  0.69264700  0.57237700  0.31684200  1
  O  O62  1  0.03521800  0.11460600  0.90415600  1
  O  O63  1  0.03893350  0.77054050  0.91032200  1
  O  O64  1  0.73061650  0.92009250  0.34762500  1
  O  O65  1  0.64516800  0.85601200  0.05964300  1
  O  O66  1  0.96478200  0.11460600  0.59584400  1
  O  O67  1  0.85483200  0.35601200  0.44035700  1
  O  O68  1  0.08396100  0.37924200  0.65220800  1
  O  O69  1  0.80735300  0.07237700  0.18315800  1
  O  O70  1  0.23061650  0.57990750  0.84762500  1
  O  O71  1  0.03893350  0.22945950  0.41032200  1
