# generated using pymatgen
data_Na3MnBPO7
_symmetry_space_group_name_H-M   'P 1'
_cell_length_a   5.20766410
_cell_length_b   7.02145301
_cell_length_c   8.79955459
_cell_angle_alpha   90.00000000
_cell_angle_beta   92.06199809
_cell_angle_gamma   90.00000000
_symmetry_Int_Tables_number   1
_chemical_formula_structural   Na3MnBPO7
_chemical_formula_sum   'Na6 Mn2 B2 P2 O14'
_cell_volume   321.55061218
_cell_formula_units_Z   2
loop_
 _symmetry_equiv_pos_site_id
 _symmetry_equiv_pos_as_xyz
  1  'x, y, z'
loop_
 _atom_site_type_symbol
 _atom_site_label
 _atom_site_symmetry_multiplicity
 _atom_site_fract_x
 _atom_site_fract_y
 _atom_site_fract_z
 _atom_site_occupancy
  Na  Na0  1  0.26741275  0.75000000  0.42040250  1
  Na  Na1  1  0.73258725  0.25000000  0.57959750  1
  Na  Na2  1  0.75653875  0.99188950  0.23879650  1
  Na  Na3  1  0.75653875  0.50811050  0.23879650  1
  Na  Na4  1  0.24346125  0.49188950  0.76120350  1
  Na  Na5  1  0.24346125  0.00811050  0.76120350  1
  Mn  Mn6  1  0.28153625  0.25000000  0.16112150  1
  Mn  Mn7  1  0.71846375  0.75000000  0.83887850  1
  B  B8  1  0.22491475  0.25000000  0.43216950  1
  B  B9  1  0.77508525  0.75000000  0.56783050  1
  P  P10  1  0.22315725  0.75000000  0.08169800  1
  P  P11  1  0.77684275  0.25000000  0.91830200  1
  O  O12  1  0.80628575  0.75000000  0.41743800  1
  O  O13  1  0.19371425  0.25000000  0.58256200  1
  O  O14  1  0.46337025  0.25000000  0.36154850  1
  O  O15  1  0.53662975  0.75000000  0.63845150  1
  O  O16  1  0.02519525  0.25000000  0.31938750  1
  O  O17  1  0.97480475  0.75000000  0.68061250  1
  O  O18  1  0.92762725  0.75000000  0.03516600  1
  O  O19  1  0.07237275  0.25000000  0.96483400  1
  O  O20  1  0.62605425  0.25000000  0.06776700  1
  O  O21  1  0.37394575  0.75000000  0.93223300  1
  O  O22  1  0.28603425  0.92793400  0.17947400  1
  O  O23  1  0.28603425  0.57206600  0.17947400  1
  O  O24  1  0.71396575  0.42793400  0.82052600  1
  O  O25  1  0.71396575  0.07206600  0.82052600  1
