# generated using pymatgen
data_Li2Co3SnO8
_symmetry_space_group_name_H-M   'P 1'
_cell_length_a   5.76607556
_cell_length_b   5.76607556
_cell_length_c   14.82395551
_cell_angle_alpha   90.00000000
_cell_angle_beta   90.00000000
_cell_angle_gamma   120.00000000
_symmetry_Int_Tables_number   1
_chemical_formula_structural   Li2Co3SnO8
_chemical_formula_sum   'Li6 Co9 Sn3 O24'
_cell_volume   426.83044942
_cell_formula_units_Z   3
loop_
 _symmetry_equiv_pos_site_id
 _symmetry_equiv_pos_as_xyz
  1  'x, y, z'
loop_
 _atom_site_type_symbol
 _atom_site_label
 _atom_site_symmetry_multiplicity
 _atom_site_fract_x
 _atom_site_fract_y
 _atom_site_fract_z
 _atom_site_occupancy
  Li  Li0  1  0.00000000  0.00000000  0.11519700  1
  Li  Li1  1  0.66666667  0.33333333  0.21813633  1
  Li  Li2  1  0.66666667  0.33333333  0.44853033  1
  Li  Li3  1  0.33333333  0.66666667  0.55146967  1
  Li  Li4  1  0.33333333  0.66666667  0.78186367  1
  Li  Li5  1  0.00000000  0.00000000  0.88480300  1
  Co  Co6  1  0.00000000  0.50000000  0.00000000  1
  Co  Co7  1  0.50000000  0.50000000  0.00000000  1
  Co  Co8  1  0.50000000  0.00000000  0.00000000  1
  Co  Co9  1  0.66666667  0.83333333  0.33333333  1
  Co  Co10  1  0.16666667  0.83333333  0.33333333  1
  Co  Co11  1  0.16666667  0.33333333  0.33333333  1
  Co  Co12  1  0.33333333  0.16666667  0.66666667  1
  Co  Co13  1  0.83333333  0.16666667  0.66666667  1
  Co  Co14  1  0.83333333  0.66666667  0.66666667  1
  Sn  Sn15  1  0.33333333  0.66666667  0.16666667  1
  Sn  Sn16  1  1.00000000  1.00000000  0.50000000  1
  Sn  Sn17  1  0.66666667  0.33333333  0.83333333  1
  O  O18  1  0.17994633  0.82005367  0.07192767  1
  O  O19  1  0.64010733  0.82005367  0.07192767  1
  O  O20  1  0.66666667  0.33333333  0.06368533  1
  O  O21  1  0.17994633  0.35989267  0.07192767  1
  O  O22  1  0.48672033  0.97344067  0.26140567  1
  O  O23  1  0.00000000  0.00000000  0.26964800  1
  O  O24  1  0.02655933  0.51327967  0.26140567  1
  O  O25  1  0.48672033  0.51327967  0.26140567  1
  O  O26  1  0.84661300  0.15338700  0.40526100  1
  O  O27  1  0.30677400  0.15338700  0.40526100  1
  O  O28  1  0.33333333  0.66666667  0.39701867  1
  O  O29  1  0.84661300  0.69322600  0.40526100  1
  O  O30  1  0.15338700  0.30677400  0.59473900  1
  O  O31  1  0.66666667  0.33333333  0.60298133  1
  O  O32  1  0.69322600  0.84661300  0.59473900  1
  O  O33  1  0.15338700  0.84661300  0.59473900  1
  O  O34  1  0.51327967  0.48672033  0.73859433  1
  O  O35  1  0.97344067  0.48672033  0.73859433  1
  O  O36  1  0.00000000  0.00000000  0.73035200  1
  O  O37  1  0.51327967  0.02655933  0.73859433  1
  O  O38  1  0.82005367  0.64010733  0.92807233  1
  O  O39  1  0.33333333  0.66666667  0.93631467  1
  O  O40  1  0.35989267  0.17994633  0.92807233  1
  O  O41  1  0.82005367  0.17994633  0.92807233  1
