# generated using pymatgen
data_Li5Si2NiO8
_symmetry_space_group_name_H-M   'P 1'
_cell_length_a   7.31426400
_cell_length_b   7.42205200
_cell_length_c   6.28610145
_cell_angle_alpha   90.00000000
_cell_angle_beta   90.26345153
_cell_angle_gamma   90.00000000
_symmetry_Int_Tables_number   1
_chemical_formula_structural   Li5Si2NiO8
_chemical_formula_sum   'Li10 Si4 Ni2 O16'
_cell_volume   341.24902499
_cell_formula_units_Z   2
loop_
 _symmetry_equiv_pos_site_id
 _symmetry_equiv_pos_as_xyz
  1  'x, y, z'
loop_
 _atom_site_type_symbol
 _atom_site_label
 _atom_site_symmetry_multiplicity
 _atom_site_fract_x
 _atom_site_fract_y
 _atom_site_fract_z
 _atom_site_occupancy
  Li  Li0  1  0.18776400  0.01263800  0.25839900  1
  Li  Li1  1  0.50000000  0.80781000  0.00000000  1
  Li  Li2  1  0.50000000  0.17017900  0.50000000  1
  Li  Li3  1  0.50000000  0.81682000  0.50000000  1
  Li  Li4  1  0.81223600  0.01263800  0.74160100  1
  Li  Li5  1  0.68776400  0.51263800  0.25839900  1
  Li  Li6  1  0.00000000  0.30781000  0.00000000  1
  Li  Li7  1  0.00000000  0.67017900  0.50000000  1
  Li  Li8  1  0.00000000  0.31682000  0.50000000  1
  Li  Li9  1  0.31223600  0.51263800  0.74160100  1
  Si  Si10  1  0.17690300  0.00688600  0.74582600  1
  Si  Si11  1  0.82309700  0.00688600  0.25417400  1
  Si  Si12  1  0.67690300  0.50688600  0.74582600  1
  Si  Si13  1  0.32309700  0.50688600  0.25417400  1
  Ni  Ni14  1  0.50000000  0.17936400  0.00000000  1
  Ni  Ni15  1  0.00000000  0.67936400  0.00000000  1
  O  O16  1  0.30928200  0.00862400  0.96578500  1
  O  O17  1  0.30106500  0.99667600  0.53465600  1
  O  O18  1  0.45541750  0.31865850  0.23664800  1
  O  O19  1  0.46977950  0.66943150  0.24900200  1
  O  O20  1  0.54458250  0.31865850  0.76335200  1
  O  O21  1  0.53022050  0.66943150  0.75099800  1
  O  O22  1  0.69071800  0.00862400  0.03421500  1
  O  O23  1  0.69893500  0.99667600  0.46534400  1
  O  O24  1  0.80928200  0.50862400  0.96578500  1
  O  O25  1  0.80106500  0.49667600  0.53465600  1
  O  O26  1  0.95541750  0.81865850  0.23664800  1
  O  O27  1  0.96977950  0.16943150  0.24900200  1
  O  O28  1  0.04458250  0.81865850  0.76335200  1
  O  O29  1  0.03022050  0.16943150  0.75099800  1
  O  O30  1  0.19071800  0.50862400  0.03421500  1
  O  O31  1  0.19893500  0.49667600  0.46534400  1
