# generated using pymatgen
data_Pr5(CoB3)2
_symmetry_space_group_name_H-M   'P 1'
_cell_length_a   5.49059041
_cell_length_b   5.49059041
_cell_length_c   25.01138744
_cell_angle_alpha   90.00000000
_cell_angle_beta   90.00000000
_cell_angle_gamma   120.00000000
_symmetry_Int_Tables_number   1
_chemical_formula_structural   Pr5(CoB3)2
_chemical_formula_sum   'Pr15 Co6 B18'
_cell_volume   652.98996855
_cell_formula_units_Z   3
loop_
 _symmetry_equiv_pos_site_id
 _symmetry_equiv_pos_as_xyz
  1  'x, y, z'
loop_
 _atom_site_type_symbol
 _atom_site_label
 _atom_site_symmetry_multiplicity
 _atom_site_fract_x
 _atom_site_fract_y
 _atom_site_fract_z
 _atom_site_occupancy
  Pr  Pr0  1  0.33333333  0.66666667  0.08391067  1
  Pr  Pr1  1  0.33333333  0.66666667  0.24942267  1
  Pr  Pr2  1  0.00000000  0.00000000  0.25061300  1
  Pr  Pr3  1  0.66666667  0.33333333  0.08272033  1
  Pr  Pr4  1  0.00000000  0.00000000  0.00000000  1
  Pr  Pr5  1  0.00000000  0.00000000  0.41724400  1
  Pr  Pr6  1  0.00000000  0.00000000  0.58275600  1
  Pr  Pr7  1  0.66666667  0.33333333  0.58394633  1
  Pr  Pr8  1  0.33333333  0.66666667  0.41605367  1
  Pr  Pr9  1  0.66666667  0.33333333  0.33333333  1
  Pr  Pr10  1  0.66666667  0.33333333  0.75057733  1
  Pr  Pr11  1  0.66666667  0.33333333  0.91608933  1
  Pr  Pr12  1  0.33333333  0.66666667  0.91727967  1
  Pr  Pr13  1  0.00000000  0.00000000  0.74938700  1
  Pr  Pr14  1  0.33333333  0.66666667  0.66666667  1
  Co  Co15  1  0.00000000  0.00000000  0.12386800  1
  Co  Co16  1  0.66666667  0.33333333  0.20946533  1
  Co  Co17  1  0.66666667  0.33333333  0.45720133  1
  Co  Co18  1  0.33333333  0.66666667  0.54279867  1
  Co  Co19  1  0.33333333  0.66666667  0.79053467  1
  Co  Co20  1  0.00000000  0.00000000  0.87613200  1
  B  B21  1  0.66627133  0.66666667  0.16666667  1
  B  B22  1  0.00039533  0.33372867  0.16666667  1
  B  B23  1  0.33333333  0.99960467  0.16666667  1
  B  B24  1  0.00039533  0.66666667  0.16666667  1
  B  B25  1  0.66627133  0.99960467  0.16666667  1
  B  B26  1  0.33333333  0.33372867  0.16666667  1
  B  B27  1  0.33293800  0.00000000  0.50000000  1
  B  B28  1  0.66706200  0.66706200  0.50000000  1
  B  B29  1  0.00000000  0.33293800  0.50000000  1
  B  B30  1  0.66706200  0.00000000  0.50000000  1
  B  B31  1  0.33293800  0.33293800  0.50000000  1
  B  B32  1  0.00000000  0.66706200  0.50000000  1
  B  B33  1  0.99960467  0.33333333  0.83333333  1
  B  B34  1  0.33372867  0.00039533  0.83333333  1
  B  B35  1  0.66666667  0.66627133  0.83333333  1
  B  B36  1  0.33372867  0.33333333  0.83333333  1
  B  B37  1  0.99960467  0.66627133  0.83333333  1
  B  B38  1  0.66666667  0.00039533  0.83333333  1
