# generated using pymatgen
data_Nb3P6WO24
_symmetry_space_group_name_H-M   'P 1'
_cell_length_a   8.86685362
_cell_length_b   8.86685362
_cell_length_c   22.46670042
_cell_angle_alpha   90.00000000
_cell_angle_beta   90.00000000
_cell_angle_gamma   120.00000000
_symmetry_Int_Tables_number   1
_chemical_formula_structural   Nb3P6WO24
_chemical_formula_sum   'Nb9 P18 W3 O72'
_cell_volume   1529.70963896
_cell_formula_units_Z   3
loop_
 _symmetry_equiv_pos_site_id
 _symmetry_equiv_pos_as_xyz
  1  'x, y, z'
loop_
 _atom_site_type_symbol
 _atom_site_label
 _atom_site_symmetry_multiplicity
 _atom_site_fract_x
 _atom_site_fract_y
 _atom_site_fract_z
 _atom_site_occupancy
  Nb  Nb0  1  0.66666667  0.33333333  0.19299933  1
  Nb  Nb1  1  0.33333333  0.66666667  0.30831067  1
  Nb  Nb2  1  0.33333333  0.66666667  0.02653567  1
  Nb  Nb3  1  0.33333333  0.66666667  0.52633267  1
  Nb  Nb4  1  0.00000000  0.00000000  0.64164400  1
  Nb  Nb5  1  0.00000000  0.00000000  0.35986900  1
  Nb  Nb6  1  0.00000000  0.00000000  0.85966600  1
  Nb  Nb7  1  0.66666667  0.33333333  0.97497733  1
  Nb  Nb8  1  0.66666667  0.33333333  0.69320233  1
  P  P9  1  0.28386267  0.99965733  0.25024833  1
  P  P10  1  0.00034267  0.28420533  0.25024833  1
  P  P11  1  0.71579467  0.71613733  0.25024833  1
  P  P12  1  0.94885767  0.61526433  0.08312033  1
  P  P13  1  0.66640667  0.05114233  0.08312033  1
  P  P14  1  0.38473567  0.33359333  0.08312033  1
  P  P15  1  0.95052933  0.33299067  0.58358167  1
  P  P16  1  0.66700933  0.61753867  0.58358167  1
  P  P17  1  0.38246133  0.04947067  0.58358167  1
  P  P18  1  0.61552433  0.94859767  0.41645367  1
  P  P19  1  0.33307333  0.38447567  0.41645367  1
  P  P20  1  0.05140233  0.66692667  0.41645367  1
  P  P21  1  0.61719600  0.66632400  0.91691500  1
  P  P22  1  0.33367600  0.95087200  0.91691500  1
  P  P23  1  0.04912800  0.38280400  0.91691500  1
  P  P24  1  0.28219100  0.28193100  0.74978700  1
  P  P25  1  0.99974000  0.71780900  0.74978700  1
  P  P26  1  0.71806900  0.00026000  0.74978700  1
  W  W27  1  0.00000000  0.00000000  0.14163300  1
  W  W28  1  0.66666667  0.33333333  0.47496633  1
  W  W29  1  0.33333333  0.66666667  0.80829967  1
  O  O30  1  0.47994800  0.31811000  0.02789000  1
  O  O31  1  0.83816200  0.52005200  0.02789000  1
  O  O32  1  0.46922133  0.16300867  0.24298067  1
  O  O33  1  0.68189000  0.16183800  0.02789000  1
  O  O34  1  0.31155267  0.84185133  0.26118033  1
  O  O35  1  0.17917333  0.96527767  0.19417167  1
  O  O36  1  0.83699133  0.30621267  0.24298067  1
  O  O37  1  0.15814867  0.46970133  0.26118033  1
  O  O38  1  0.53029867  0.68844733  0.26118033  1
  O  O39  1  0.86279600  0.49973300  0.13890900  1
  O  O40  1  0.96868633  0.79297167  0.08639267  1
  O  O41  1  0.63693700  0.13720400  0.13890900  1
  O  O42  1  0.03472233  0.21389567  0.19417167  1
  O  O43  1  0.69378733  0.53077867  0.24298067  1
  O  O44  1  0.78610433  0.82082667  0.19417167  1
  O  O45  1  0.13129300  0.62983800  0.07464200  1
  O  O46  1  0.49854500  0.86870700  0.07464200  1
  O  O47  1  0.82428533  0.03131367  0.08639267  1
  O  O48  1  0.50026700  0.36306300  0.13890900  1
  O  O49  1  0.37016200  0.50145500  0.07464200  1
  O  O50  1  0.97410633  0.17137867  0.30619367  1
  O  O51  1  0.20702833  0.17571467  0.08639267  1
  O  O52  1  0.82862133  0.80272767  0.30619367  1
  O  O53  1  0.19727233  0.02589367  0.30619367  1
  O  O54  1  0.14661467  0.65144333  0.36122333  1
  O  O55  1  0.50482867  0.85338533  0.36122333  1
  O  O56  1  0.13588800  0.49634200  0.57631400  1
  O  O57  1  0.34855667  0.49517133  0.36122333  1
  O  O58  1  0.97821933  0.17518467  0.59451367  1
  O  O59  1  0.84584000  0.29861100  0.52750500  1
  O  O60  1  0.50365800  0.63954600  0.57631400  1
  O  O61  1  0.82481533  0.80303467  0.59451367  1
  O  O62  1  0.19696533  0.02178067  0.59451367  1
  O  O63  1  0.52946267  0.83306633  0.47224233  1
  O  O64  1  0.63535300  0.12630500  0.41972600  1
  O  O65  1  0.30360367  0.47053733  0.47224233  1
  O  O66  1  0.70138900  0.54722900  0.52750500  1
  O  O67  1  0.36045400  0.86411200  0.57631400  1
  O  O68  1  0.45277100  0.15416000  0.52750500  1
  O  O69  1  0.79795967  0.96317133  0.40797533  1
  O  O70  1  0.16521167  0.20204033  0.40797533  1
  O  O71  1  0.49095200  0.36464700  0.41972600  1
  O  O72  1  0.16693367  0.69639633  0.47224233  1
  O  O73  1  0.03682867  0.83478833  0.40797533  1
  O  O74  1  0.64077300  0.50471200  0.63952700  1
  O  O75  1  0.87369500  0.50904800  0.41972600  1
  O  O76  1  0.49528800  0.13606100  0.63952700  1
  O  O77  1  0.86393900  0.35922700  0.63952700  1
  O  O78  1  0.81328133  0.98477667  0.69455667  1
  O  O79  1  0.17149533  0.18671867  0.69455667  1
  O  O80  1  0.80255467  0.82967533  0.90964733  1
  O  O81  1  0.01522333  0.82850467  0.69455667  1
  O  O82  1  0.64488600  0.50851800  0.92784700  1
  O  O83  1  0.51250667  0.63194433  0.86083833  1
  O  O84  1  0.17032467  0.97287933  0.90964733  1
  O  O85  1  0.49148200  0.13636800  0.92784700  1
  O  O86  1  0.86363200  0.35511400  0.92784700  1
  O  O87  1  0.19612933  0.16639967  0.80557567  1
  O  O88  1  0.30201967  0.45963833  0.75305933  1
  O  O89  1  0.97027033  0.80387067  0.80557567  1
  O  O90  1  0.36805567  0.88056233  0.86083833  1
  O  O91  1  0.02712067  0.19744533  0.90964733  1
  O  O92  1  0.11943767  0.48749333  0.86083833  1
  O  O93  1  0.46462633  0.29650467  0.74130867  1
  O  O94  1  0.83187833  0.53537367  0.74130867  1
  O  O95  1  0.15761867  0.69798033  0.75305933  1
  O  O96  1  0.83360033  0.02972967  0.80557567  1
  O  O97  1  0.70349533  0.16812167  0.74130867  1
  O  O98  1  0.30743967  0.83804533  0.97286033  1
  O  O99  1  0.54036167  0.84238133  0.75305933  1
  O  O100  1  0.16195467  0.46939433  0.97286033  1
  O  O101  1  0.53060567  0.69256033  0.97286033  1
