# generated using pymatgen
data_Na5CaAl5Fe(SiO3)12
_symmetry_space_group_name_H-M   'P 1'
_cell_length_a   9.60630800
_cell_length_b   8.72007800
_cell_length_c   15.89259555
_cell_angle_alpha   90.00000000
_cell_angle_beta   107.24299257
_cell_angle_gamma   90.00000000
_symmetry_Int_Tables_number   1
_chemical_formula_structural   Na5CaAl5Fe(SiO3)12
_chemical_formula_sum   'Na10 Ca2 Al10 Fe2 Si24 O72'
_cell_volume   1271.45395940
_cell_formula_units_Z   2
loop_
 _symmetry_equiv_pos_site_id
 _symmetry_equiv_pos_as_xyz
  1  'x, y, z'
loop_
 _atom_site_type_symbol
 _atom_site_label
 _atom_site_symmetry_multiplicity
 _atom_site_fract_x
 _atom_site_fract_y
 _atom_site_fract_z
 _atom_site_occupancy
  Na  Na0  1  0.00064050  0.69936850  0.33335300  1
  Na  Na1  1  0.99888000  0.30273300  0.16537400  1
  Na  Na2  1  0.00000000  0.69724200  0.00000000  1
  Na  Na3  1  0.50112000  0.80273300  0.83462600  1
  Na  Na4  1  0.99935950  0.69936850  0.66664700  1
  Na  Na5  1  0.50064050  0.19936850  0.33335300  1
  Na  Na6  1  0.49888000  0.80273300  0.16537400  1
  Na  Na7  1  0.50000000  0.19724200  0.00000000  1
  Na  Na8  1  0.00112000  0.30273300  0.83462600  1
  Na  Na9  1  0.49935950  0.19936850  0.66664700  1
  Ca  Ca10  1  0.50000000  0.80151000  0.50000000  1
  Ca  Ca11  1  0.00000000  0.30151000  0.50000000  1
  Al  Al12  1  0.49762950  0.59238050  0.32936700  1
  Al  Al13  1  0.99937450  0.90335550  0.16512400  1
  Al  Al14  1  0.00000000  0.09671000  0.00000000  1
  Al  Al15  1  0.00062550  0.90335550  0.83487600  1
  Al  Al16  1  0.50237050  0.59238050  0.67063300  1
  Al  Al17  1  0.99762950  0.09238050  0.32936700  1
  Al  Al18  1  0.49937450  0.40335550  0.16512400  1
  Al  Al19  1  0.50000000  0.59671000  0.00000000  1
  Al  Al20  1  0.50062550  0.40335550  0.83487600  1
  Al  Al21  1  0.00237050  0.09238050  0.67063300  1
  Fe  Fe22  1  0.00000000  0.89587500  0.50000000  1
  Fe  Fe23  1  0.50000000  0.39587500  0.50000000  1
  Si  Si24  1  0.28797750  0.90941550  0.32352600  1
  Si  Si25  1  0.20903850  0.40494150  0.33686500  1
  Si  Si26  1  0.78868900  0.59423200  0.15738400  1
  Si  Si27  1  0.20848800  0.59387500  0.17398000  1
  Si  Si28  1  0.28894450  0.90653150  0.99152600  1
  Si  Si29  1  0.21105550  0.40653150  0.00847400  1
  Si  Si30  1  0.29151200  0.09387500  0.82602000  1
  Si  Si31  1  0.71131100  0.09423200  0.84261600  1
  Si  Si32  1  0.29096150  0.90494150  0.66313500  1
  Si  Si33  1  0.71202250  0.90941550  0.67647400  1
  Si  Si34  1  0.28399900  0.09003400  0.49269100  1
  Si  Si35  1  0.21600100  0.59003400  0.50730900  1
  Si  Si36  1  0.78797750  0.40941550  0.32352600  1
  Si  Si37  1  0.70903850  0.90494150  0.33686500  1
  Si  Si38  1  0.28868900  0.09423200  0.15738400  1
  Si  Si39  1  0.70848800  0.09387500  0.17398000  1
  Si  Si40  1  0.78894450  0.40653150  0.99152600  1
  Si  Si41  1  0.71105550  0.90653150  0.00847400  1
  Si  Si42  1  0.79151200  0.59387500  0.82602000  1
  Si  Si43  1  0.21131100  0.59423200  0.84261600  1
  Si  Si44  1  0.79096150  0.40494150  0.66313500  1
  Si  Si45  1  0.21202250  0.40941550  0.67647400  1
  Si  Si46  1  0.78399900  0.59003400  0.49269100  1
  Si  Si47  1  0.71600100  0.09003400  0.50730900  1
  O  O48  1  0.15308900  0.47717900  0.41881200  1
  O  O49  1  0.36622050  0.74422450  0.34983000  1
  O  O50  1  0.10913050  0.92483750  0.29026800  1
  O  O51  1  0.38473450  0.42516750  0.36105500  1
  O  O52  1  0.13414900  0.23856300  0.31210200  1
  O  O53  1  0.85117800  0.49331400  0.25016700  1
  O  O54  1  0.14123400  0.51501400  0.24815500  1
  O  O55  1  0.86222600  0.76102900  0.17985300  1
  O  O56  1  0.60901250  0.57553750  0.12484200  1
  O  O57  1  0.38838100  0.57688000  0.20597200  1
  O  O58  1  0.13790550  0.76205550  0.15073200  1
  O  O59  1  0.85095300  0.50859900  0.08349000  1
  O  O60  1  0.14783700  0.49072500  0.08264000  1
  O  O61  1  0.86233400  0.23940600  0.01466100  1
  O  O62  1  0.10931400  0.92475500  0.95904100  1
  O  O63  1  0.39068600  0.42475500  0.04095900  1
  O  O64  1  0.63766600  0.73940600  0.98533900  1
  O  O65  1  0.35216300  0.99072500  0.91736000  1
  O  O66  1  0.64904700  0.00859900  0.91651000  1
  O  O67  1  0.36209450  0.26205550  0.84926800  1
  O  O68  1  0.11161900  0.07688000  0.79402800  1
  O  O69  1  0.39098750  0.57553750  0.87515800  1
  O  O70  1  0.13777400  0.76102900  0.82014700  1
  O  O71  1  0.35876600  0.01501400  0.75184500  1
  O  O72  1  0.64882200  0.99331400  0.74983300  1
  O  O73  1  0.36585100  0.73856300  0.68789800  1
  O  O74  1  0.11526550  0.92516750  0.63894500  1
  O  O75  1  0.39086950  0.42483750  0.70973200  1
  O  O76  1  0.63377950  0.74422450  0.65017000  1
  O  O77  1  0.34691100  0.97717900  0.58118800  1
  O  O78  1  0.14855400  0.50822100  0.58204100  1
  O  O79  1  0.84777150  0.75554750  0.52313500  1
  O  O80  1  0.10628000  0.08640900  0.45261900  1
  O  O81  1  0.39372000  0.58640900  0.54738100  1
  O  O82  1  0.15222850  0.75554750  0.47686500  1
  O  O83  1  0.35144600  0.00822100  0.41795900  1
  O  O84  1  0.65308900  0.97717900  0.41881200  1
  O  O85  1  0.86622050  0.24422450  0.34983000  1
  O  O86  1  0.60913050  0.42483750  0.29026800  1
  O  O87  1  0.88473450  0.92516750  0.36105500  1
  O  O88  1  0.63414900  0.73856300  0.31210200  1
  O  O89  1  0.35117800  0.99331400  0.25016700  1
  O  O90  1  0.64123400  0.01501400  0.24815500  1
  O  O91  1  0.36222600  0.26102900  0.17985300  1
  O  O92  1  0.10901250  0.07553750  0.12484200  1
  O  O93  1  0.88838100  0.07688000  0.20597200  1
  O  O94  1  0.63790550  0.26205550  0.15073200  1
  O  O95  1  0.35095300  0.00859900  0.08349000  1
  O  O96  1  0.64783700  0.99072500  0.08264000  1
  O  O97  1  0.36233400  0.73940600  0.01466100  1
  O  O98  1  0.60931400  0.42475500  0.95904100  1
  O  O99  1  0.89068600  0.92475500  0.04095900  1
  O  O100  1  0.13766600  0.23940600  0.98533900  1
  O  O101  1  0.85216300  0.49072500  0.91736000  1
  O  O102  1  0.14904700  0.50859900  0.91651000  1
  O  O103  1  0.86209450  0.76205550  0.84926800  1
  O  O104  1  0.61161900  0.57688000  0.79402800  1
  O  O105  1  0.89098750  0.07553750  0.87515800  1
  O  O106  1  0.63777400  0.26102900  0.82014700  1
  O  O107  1  0.85876600  0.51501400  0.75184500  1
  O  O108  1  0.14882200  0.49331400  0.74983300  1
  O  O109  1  0.86585100  0.23856300  0.68789800  1
  O  O110  1  0.61526550  0.42516750  0.63894500  1
  O  O111  1  0.89086950  0.92483750  0.70973200  1
  O  O112  1  0.13377950  0.24422450  0.65017000  1
  O  O113  1  0.84691100  0.47717900  0.58118800  1
  O  O114  1  0.64855400  0.00822100  0.58204100  1
  O  O115  1  0.34777150  0.25554750  0.52313500  1
  O  O116  1  0.60628000  0.58640900  0.45261900  1
  O  O117  1  0.89372000  0.08640900  0.54738100  1
  O  O118  1  0.65222850  0.25554750  0.47686500  1
  O  O119  1  0.85144600  0.50822100  0.41795900  1
