# generated using pymatgen
data_Li2Fe3Co7O20
_symmetry_space_group_name_H-M   'P 1'
_cell_length_a   5.86505877
_cell_length_b   2.88056300
_cell_length_c   20.51243722
_cell_angle_alpha   90.00000000
_cell_angle_beta   97.40936076
_cell_angle_gamma   90.00000000
_symmetry_Int_Tables_number   1
_chemical_formula_structural   Li2Fe3Co7O20
_chemical_formula_sum   'Li2 Fe3 Co7 O20'
_cell_volume   343.65722116
_cell_formula_units_Z   1
loop_
 _symmetry_equiv_pos_site_id
 _symmetry_equiv_pos_as_xyz
  1  'x, y, z'
loop_
 _atom_site_type_symbol
 _atom_site_label
 _atom_site_symmetry_multiplicity
 _atom_site_fract_x
 _atom_site_fract_y
 _atom_site_fract_z
 _atom_site_occupancy
  Li  Li0  1  0.00000000  0.50000000  0.50000000  1
  Li  Li1  1  0.00000000  0.00000000  0.00000000  1
  Fe  Fe2  1  0.90121200  0.00000000  0.79787500  1
  Fe  Fe3  1  0.50000000  0.00000000  0.00000000  1
  Fe  Fe4  1  0.09878800  0.00000000  0.20212500  1
  Co  Co5  1  0.68188400  0.00000000  0.39883700  1
  Co  Co6  1  0.50000000  0.50000000  0.50000000  1
  Co  Co7  1  0.31811600  0.00000000  0.60116300  1
  Co  Co8  1  0.10352000  0.50000000  0.69686100  1
  Co  Co9  1  0.69249800  0.50000000  0.89752400  1
  Co  Co10  1  0.30750200  0.50000000  0.10247600  1
  Co  Co11  1  0.89648000  0.50000000  0.30313900  1
  O  O12  1  0.48114700  0.50000000  0.40784200  1
  O  O13  1  0.71485500  0.00000000  0.49256900  1
  O  O14  1  0.28514500  0.00000000  0.50743100  1
  O  O15  1  0.10490800  0.50000000  0.60376200  1
  O  O16  1  0.51885300  0.50000000  0.59215800  1
  O  O17  1  0.89733500  0.00000000  0.69925000  1
  O  O18  1  0.31294000  0.00000000  0.69196800  1
  O  O19  1  0.12058200  0.50000000  0.78744500  1
  O  O20  1  0.68287400  0.50000000  0.80770100  1
  O  O21  1  0.90580800  0.00000000  0.89768800  1
  O  O22  1  0.48841100  0.00000000  0.90241400  1
  O  O23  1  0.73077900  0.50000000  0.99089800  1
  O  O24  1  0.26922100  0.50000000  0.00910200  1
  O  O25  1  0.09419200  0.00000000  0.10231200  1
  O  O26  1  0.51158900  0.00000000  0.09758600  1
  O  O27  1  0.87941800  0.50000000  0.21255500  1
  O  O28  1  0.31712600  0.50000000  0.19229900  1
  O  O29  1  0.10266500  0.00000000  0.30075000  1
  O  O30  1  0.68706000  0.00000000  0.30803200  1
  O  O31  1  0.89509200  0.50000000  0.39623800  1
