# generated using pymatgen
data_Li3Mn4(PO4)6
_symmetry_space_group_name_H-M   'P 1'
_cell_length_a   11.66296000
_cell_length_b   12.67279800
_cell_length_c   6.23925505
_cell_angle_alpha   90.00000000
_cell_angle_beta   112.49400111
_cell_angle_gamma   90.00000000
_symmetry_Int_Tables_number   1
_chemical_formula_structural   Li3Mn4(PO4)6
_chemical_formula_sum   'Li6 Mn8 P12 O48'
_cell_volume   852.01691297
_cell_formula_units_Z   2
loop_
 _symmetry_equiv_pos_site_id
 _symmetry_equiv_pos_as_xyz
  1  'x, y, z'
loop_
 _atom_site_type_symbol
 _atom_site_label
 _atom_site_symmetry_multiplicity
 _atom_site_fract_x
 _atom_site_fract_y
 _atom_site_fract_z
 _atom_site_occupancy
  Li  Li0  1  0.50019700  0.99997500  0.24911100  1
  Li  Li1  1  0.49980300  0.99997500  0.75088900  1
  Li  Li2  1  0.50000000  0.50671200  0.00000000  1
  Li  Li3  1  0.00019700  0.49997500  0.24911100  1
  Li  Li4  1  0.99980300  0.49997500  0.75088900  1
  Li  Li5  1  0.00000000  0.00671200  0.00000000  1
  Mn  Mn6  1  0.21771700  0.83991900  0.38458800  1
  Mn  Mn7  1  0.21652800  0.15834300  0.88256600  1
  Mn  Mn8  1  0.78228300  0.83991900  0.61541200  1
  Mn  Mn9  1  0.78347200  0.15834300  0.11743400  1
  Mn  Mn10  1  0.71771700  0.33991900  0.38458800  1
  Mn  Mn11  1  0.71652800  0.65834300  0.88256600  1
  Mn  Mn12  1  0.28228300  0.33991900  0.61541200  1
  Mn  Mn13  1  0.28347200  0.65834300  0.11743400  1
  P  P14  1  0.50000000  0.77686500  0.50000000  1
  P  P15  1  0.24660850  0.90482350  0.88997200  1
  P  P16  1  0.24754300  0.09459700  0.38667600  1
  P  P17  1  0.75339150  0.90482350  0.11002800  1
  P  P18  1  0.75245700  0.09459700  0.61332400  1
  P  P19  1  0.50000000  0.22223000  0.00000000  1
  P  P20  1  0.00000000  0.27686500  0.50000000  1
  P  P21  1  0.74660850  0.40482350  0.88997200  1
  P  P22  1  0.74754300  0.59459700  0.38667600  1
  P  P23  1  0.25339150  0.40482350  0.11002800  1
  P  P24  1  0.25245700  0.59459700  0.61332400  1
  P  P25  1  0.00000000  0.72223000  0.00000000  1
  O  O26  1  0.18918500  0.83925100  0.66371200  1
  O  O27  1  0.23219350  0.82743750  0.07944700  1
  O  O28  1  0.54775900  0.70787700  0.72242800  1
  O  O29  1  0.45224100  0.70787700  0.27757200  1
  O  O30  1  0.16244050  0.99495850  0.34221900  1
  O  O31  1  0.39984800  0.85367900  0.52079800  1
  O  O32  1  0.16187200  0.00261200  0.86982500  1
  O  O33  1  0.37930300  0.93676400  0.95138100  1
  O  O34  1  0.60015200  0.85367900  0.47920200  1
  O  O35  1  0.23061950  0.16902050  0.57786300  1
  O  O36  1  0.18777450  0.16269050  0.16313700  1
  O  O37  1  0.38094850  0.06488750  0.45330000  1
  O  O38  1  0.62069700  0.93676400  0.04861900  1
  O  O39  1  0.81081500  0.83925100  0.33628800  1
  O  O40  1  0.76780650  0.82743750  0.92055300  1
  O  O41  1  0.39991050  0.14571050  0.02102100  1
  O  O42  1  0.61905150  0.06488750  0.54670000  1
  O  O43  1  0.83755950  0.99495850  0.65778100  1
  O  O44  1  0.60008950  0.14571050  0.97897900  1
  O  O45  1  0.83812800  0.00261200  0.13017500  1
  O  O46  1  0.54810550  0.29341450  0.21951100  1
  O  O47  1  0.45189450  0.29341450  0.78048900  1
  O  O48  1  0.76938050  0.16902050  0.42213700  1
  O  O49  1  0.81222550  0.16269050  0.83686300  1
  O  O50  1  0.68918500  0.33925100  0.66371200  1
  O  O51  1  0.73219350  0.32743750  0.07944700  1
  O  O52  1  0.04775900  0.20787700  0.72242800  1
  O  O53  1  0.95224100  0.20787700  0.27757200  1
  O  O54  1  0.66244050  0.49495850  0.34221900  1
  O  O55  1  0.89984800  0.35367900  0.52079800  1
  O  O56  1  0.66187200  0.50261200  0.86982500  1
  O  O57  1  0.87930300  0.43676400  0.95138100  1
  O  O58  1  0.10015200  0.35367900  0.47920200  1
  O  O59  1  0.73061950  0.66902050  0.57786300  1
  O  O60  1  0.68777450  0.66269050  0.16313700  1
  O  O61  1  0.88094850  0.56488750  0.45330000  1
  O  O62  1  0.12069700  0.43676400  0.04861900  1
  O  O63  1  0.31081500  0.33925100  0.33628800  1
  O  O64  1  0.26780650  0.32743750  0.92055300  1
  O  O65  1  0.89991050  0.64571050  0.02102100  1
  O  O66  1  0.11905150  0.56488750  0.54670000  1
  O  O67  1  0.33755950  0.49495850  0.65778100  1
  O  O68  1  0.10008950  0.64571050  0.97897900  1
  O  O69  1  0.33812800  0.50261200  0.13017500  1
  O  O70  1  0.04810550  0.79341450  0.21951100  1
  O  O71  1  0.95189450  0.79341450  0.78048900  1
  O  O72  1  0.26938050  0.66902050  0.42213700  1
  O  O73  1  0.31222550  0.66269050  0.83686300  1
