# generated using pymatgen
data_Li2Si2NiO6
_symmetry_space_group_name_H-M   'P 1'
_cell_length_a   7.16878350
_cell_length_b   7.22424975
_cell_length_c   19.79820577
_cell_angle_alpha   90.00000000
_cell_angle_beta   90.00000000
_cell_angle_gamma   90.00000000
_symmetry_Int_Tables_number   1
_chemical_formula_structural   Li2Si2NiO6
_chemical_formula_sum   'Li16 Si16 Ni8 O48'
_cell_volume   1025.33091017
_cell_formula_units_Z   8
loop_
 _symmetry_equiv_pos_site_id
 _symmetry_equiv_pos_as_xyz
  1  'x, y, z'
loop_
 _atom_site_type_symbol
 _atom_site_label
 _atom_site_symmetry_multiplicity
 _atom_site_fract_x
 _atom_site_fract_y
 _atom_site_fract_z
 _atom_site_occupancy
  Li  Li0  1  0.48539225  0.77863150  0.83187725  1
  Li  Li1  1  0.23539225  0.02863150  0.91812275  1
  Li  Li2  1  0.76460775  0.02863150  0.08187725  1
  Li  Li3  1  0.51460775  0.77863150  0.16812275  1
  Li  Li4  1  0.48539225  0.27863150  0.33187725  1
  Li  Li5  1  0.23539225  0.52863150  0.41812275  1
  Li  Li6  1  0.76460775  0.52863150  0.58187725  1
  Li  Li7  1  0.51460775  0.27863150  0.66812275  1
  Li  Li8  1  0.98539225  0.27863150  0.83187725  1
  Li  Li9  1  0.73539225  0.52863150  0.91812275  1
  Li  Li10  1  0.26460775  0.52863150  0.08187725  1
  Li  Li11  1  0.01460775  0.27863150  0.16812275  1
  Li  Li12  1  0.98539225  0.77863150  0.33187725  1
  Li  Li13  1  0.73539225  0.02863150  0.41812275  1
  Li  Li14  1  0.26460775  0.02863150  0.58187725  1
  Li  Li15  1  0.01460775  0.77863150  0.66812275  1
  Si  Si16  1  0.55801200  0.21592825  0.83241175  1
  Si  Si17  1  0.80801200  0.96592825  0.91758825  1
  Si  Si18  1  0.19198800  0.96592825  0.08241175  1
  Si  Si19  1  0.44198800  0.21592825  0.16758825  1
  Si  Si20  1  0.55801200  0.71592825  0.33241175  1
  Si  Si21  1  0.80801200  0.46592825  0.41758825  1
  Si  Si22  1  0.19198800  0.46592825  0.58241175  1
  Si  Si23  1  0.44198800  0.71592825  0.66758825  1
  Si  Si24  1  0.05801200  0.71592825  0.83241175  1
  Si  Si25  1  0.30801200  0.46592825  0.91758825  1
  Si  Si26  1  0.69198800  0.46592825  0.08241175  1
  Si  Si27  1  0.94198800  0.71592825  0.16758825  1
  Si  Si28  1  0.05801200  0.21592825  0.33241175  1
  Si  Si29  1  0.30801200  0.96592825  0.41758825  1
  Si  Si30  1  0.69198800  0.96592825  0.58241175  1
  Si  Si31  1  0.94198800  0.21592825  0.66758825  1
  Ni  Ni32  1  0.50000000  0.77210100  0.00000000  1
  Ni  Ni33  1  0.25000000  0.52210100  0.25000000  1
  Ni  Ni34  1  0.50000000  0.27210100  0.50000000  1
  Ni  Ni35  1  0.25000000  0.02210100  0.75000000  1
  Ni  Ni36  1  0.00000000  0.27210100  0.00000000  1
  Ni  Ni37  1  0.75000000  0.02210100  0.25000000  1
  Ni  Ni38  1  0.00000000  0.77210100  0.50000000  1
  Ni  Ni39  1  0.75000000  0.52210100  0.75000000  1
  O  O40  1  0.46977525  0.18283900  0.75827775  1
  O  O41  1  0.71977525  0.93283900  0.99172225  1
  O  O42  1  0.28022475  0.93283900  0.00827775  1
  O  O43  1  0.53022475  0.18283900  0.24172225  1
  O  O44  1  0.72128975  0.37369075  0.83493950  1
  O  O45  1  0.47128975  0.62369075  0.91506050  1
  O  O46  1  0.52871025  0.62369075  0.08493950  1
  O  O47  1  0.27871025  0.37369075  0.16506050  1
  O  O48  1  0.38904100  0.26467900  0.88810200  1
  O  O49  1  0.63904100  0.01467900  0.86189800  1
  O  O50  1  0.36095900  0.01467900  0.13810200  1
  O  O51  1  0.61095900  0.26467900  0.11189800  1
  O  O52  1  0.46977525  0.68283900  0.25827775  1
  O  O53  1  0.71977525  0.43283900  0.49172225  1
  O  O54  1  0.28022475  0.43283900  0.50827775  1
  O  O55  1  0.53022475  0.68283900  0.74172225  1
  O  O56  1  0.72128975  0.87369075  0.33493950  1
  O  O57  1  0.47128975  0.12369075  0.41506050  1
  O  O58  1  0.52871025  0.12369075  0.58493950  1
  O  O59  1  0.27871025  0.87369075  0.66506050  1
  O  O60  1  0.38904100  0.76467900  0.38810200  1
  O  O61  1  0.63904100  0.51467900  0.36189800  1
  O  O62  1  0.36095900  0.51467900  0.63810200  1
  O  O63  1  0.61095900  0.76467900  0.61189800  1
  O  O64  1  0.96977525  0.68283900  0.75827775  1
  O  O65  1  0.21977525  0.43283900  0.99172225  1
  O  O66  1  0.78022475  0.43283900  0.00827775  1
  O  O67  1  0.03022475  0.68283900  0.24172225  1
  O  O68  1  0.22128975  0.87369075  0.83493950  1
  O  O69  1  0.97128975  0.12369075  0.91506050  1
  O  O70  1  0.02871025  0.12369075  0.08493950  1
  O  O71  1  0.77871025  0.87369075  0.16506050  1
  O  O72  1  0.88904100  0.76467900  0.88810200  1
  O  O73  1  0.13904100  0.51467900  0.86189800  1
  O  O74  1  0.86095900  0.51467900  0.13810200  1
  O  O75  1  0.11095900  0.76467900  0.11189800  1
  O  O76  1  0.96977525  0.18283900  0.25827775  1
  O  O77  1  0.21977525  0.93283900  0.49172225  1
  O  O78  1  0.78022475  0.93283900  0.50827775  1
  O  O79  1  0.03022475  0.18283900  0.74172225  1
  O  O80  1  0.22128975  0.37369075  0.33493950  1
  O  O81  1  0.97128975  0.62369075  0.41506050  1
  O  O82  1  0.02871025  0.62369075  0.58493950  1
  O  O83  1  0.77871025  0.37369075  0.66506050  1
  O  O84  1  0.88904100  0.26467900  0.38810200  1
  O  O85  1  0.13904100  0.01467900  0.36189800  1
  O  O86  1  0.86095900  0.01467900  0.63810200  1
  O  O87  1  0.11095900  0.26467900  0.61189800  1
