# generated using pymatgen
data_Fe6O5F7
_symmetry_space_group_name_H-M   'P 1'
_cell_length_a   6.48085800
_cell_length_b   7.06979200
_cell_length_c   9.25405900
_cell_angle_alpha   90.00000000
_cell_angle_beta   90.00000000
_cell_angle_gamma   90.00000000
_symmetry_Int_Tables_number   1
_chemical_formula_structural   Fe6O5F7
_chemical_formula_sum   'Fe12 O10 F14'
_cell_volume   424.00541844
_cell_formula_units_Z   2
loop_
 _symmetry_equiv_pos_site_id
 _symmetry_equiv_pos_as_xyz
  1  'x, y, z'
loop_
 _atom_site_type_symbol
 _atom_site_label
 _atom_site_symmetry_multiplicity
 _atom_site_fract_x
 _atom_site_fract_y
 _atom_site_fract_z
 _atom_site_occupancy
  Fe  Fe0  1  0.99401100  0.00000000  0.83184300  1
  Fe  Fe1  1  0.99401100  0.00000000  0.16815700  1
  Fe  Fe2  1  0.02366700  0.00000000  0.50000000  1
  Fe  Fe3  1  0.49806100  0.00000000  0.00000000  1
  Fe  Fe4  1  0.48889200  0.00000000  0.67512500  1
  Fe  Fe5  1  0.48889200  0.00000000  0.32487500  1
  Fe  Fe6  1  0.49401100  0.50000000  0.83184300  1
  Fe  Fe7  1  0.49401100  0.50000000  0.16815700  1
  Fe  Fe8  1  0.52366700  0.50000000  0.50000000  1
  Fe  Fe9  1  0.99806100  0.50000000  0.00000000  1
  Fe  Fe10  1  0.98889200  0.50000000  0.67512500  1
  Fe  Fe11  1  0.98889200  0.50000000  0.32487500  1
  O  O12  1  0.29383100  0.00000000  0.83669200  1
  O  O13  1  0.29383100  0.00000000  0.16330800  1
  O  O14  1  0.33026000  0.00000000  0.50000000  1
  O  O15  1  0.69701200  0.00000000  0.83343500  1
  O  O16  1  0.69701200  0.00000000  0.16656500  1
  O  O17  1  0.79383100  0.50000000  0.83669200  1
  O  O18  1  0.79383100  0.50000000  0.16330800  1
  O  O19  1  0.83026000  0.50000000  0.50000000  1
  O  O20  1  0.19701200  0.50000000  0.83343500  1
  O  O21  1  0.19701200  0.50000000  0.16656500  1
  F  F22  1  0.49512700  0.30881700  0.00000000  1
  F  F23  1  0.50045650  0.30005450  0.32758900  1
  F  F24  1  0.50045650  0.30005450  0.67241100  1
  F  F25  1  0.70844200  0.00000000  0.50000000  1
  F  F26  1  0.49512700  0.69118300  0.00000000  1
  F  F27  1  0.50045650  0.69994550  0.67241100  1
  F  F28  1  0.50045650  0.69994550  0.32758900  1
  F  F29  1  0.99512700  0.80881700  0.00000000  1
  F  F30  1  0.00045650  0.80005450  0.32758900  1
  F  F31  1  0.00045650  0.80005450  0.67241100  1
  F  F32  1  0.20844200  0.50000000  0.50000000  1
  F  F33  1  0.99512700  0.19118300  0.00000000  1
  F  F34  1  0.00045650  0.19994550  0.67241100  1
  F  F35  1  0.00045650  0.19994550  0.32758900  1
