# generated using pymatgen
data_Yb2TiO5
_symmetry_space_group_name_H-M   'P 1'
_cell_length_a   12.07380180
_cell_length_b   5.21799579
_cell_length_c   7.57283522
_cell_angle_alpha   90.00000000
_cell_angle_beta   115.30907851
_cell_angle_gamma   90.00000000
_symmetry_Int_Tables_number   1
_chemical_formula_structural   Yb2TiO5
_chemical_formula_sum   'Yb8 Ti4 O20'
_cell_volume   431.30235112
_cell_formula_units_Z   4
loop_
 _symmetry_equiv_pos_site_id
 _symmetry_equiv_pos_as_xyz
  1  'x, y, z'
loop_
 _atom_site_type_symbol
 _atom_site_label
 _atom_site_symmetry_multiplicity
 _atom_site_fract_x
 _atom_site_fract_y
 _atom_site_fract_z
 _atom_site_occupancy
  Yb  Yb0  1  0.36049605  0.00932519  0.22972176  1
  Yb  Yb1  1  0.36049605  0.99067481  0.72972176  1
  Yb  Yb2  1  0.13768282  0.50891806  0.27047897  1
  Yb  Yb3  1  0.13768282  0.49108194  0.77047897  1
  Yb  Yb4  1  0.86049605  0.50932519  0.22972176  1
  Yb  Yb5  1  0.86049605  0.49067481  0.72972176  1
  Yb  Yb6  1  0.63768282  0.00891806  0.27047897  1
  Yb  Yb7  1  0.63768282  0.99108194  0.77047897  1
  Ti  Ti8  1  0.00125183  0.00213354  0.49823405  1
  Ti  Ti9  1  0.00125183  0.99786646  0.99823405  1
  Ti  Ti10  1  0.50125183  0.50213354  0.49823405  1
  Ti  Ti11  1  0.50125183  0.49786646  0.99823405  1
  O  O12  1  0.43650540  0.82947647  0.03298484  1
  O  O13  1  0.43650540  0.17052353  0.53298484  1
  O  O14  1  0.33501160  0.63492097  0.37728124  1
  O  O15  1  0.16397711  0.13810525  0.12398735  1
  O  O16  1  0.33501160  0.36507903  0.87728124  1
  O  O17  1  0.16397711  0.86189475  0.62398735  1
  O  O18  1  0.06029006  0.33433299  0.46498728  1
  O  O19  1  0.49849643  0.35788381  0.24745846  1
  O  O20  1  0.06029006  0.66566701  0.96498728  1
  O  O21  1  0.49849643  0.64211619  0.74745846  1
  O  O22  1  0.93650540  0.32947647  0.03298484  1
  O  O23  1  0.93650540  0.67052353  0.53298484  1
  O  O24  1  0.83501160  0.13492097  0.37728124  1
  O  O25  1  0.66397711  0.63810525  0.12398735  1
  O  O26  1  0.83501160  0.86507903  0.87728124  1
  O  O27  1  0.66397711  0.36189475  0.62398735  1
  O  O28  1  0.56029006  0.83433299  0.46498728  1
  O  O29  1  0.99849643  0.85788381  0.24745846  1
  O  O30  1  0.56029006  0.16566701  0.96498728  1
  O  O31  1  0.99849643  0.14211619  0.74745846  1
