# generated using pymatgen
data_Na3Ni2P2(CO7)2
_symmetry_space_group_name_H-M   'P 1'
_cell_length_a   10.27133845
_cell_length_b   6.49256100
_cell_length_c   10.32157259
_cell_angle_alpha   90.00000000
_cell_angle_beta   118.57327749
_cell_angle_gamma   90.00000000
_symmetry_Int_Tables_number   1
_chemical_formula_structural   Na3Ni2P2(CO7)2
_chemical_formula_sum   'Na6 Ni4 P4 C4 O28'
_cell_volume   604.48484717
_cell_formula_units_Z   2
loop_
 _symmetry_equiv_pos_site_id
 _symmetry_equiv_pos_as_xyz
  1  'x, y, z'
loop_
 _atom_site_type_symbol
 _atom_site_label
 _atom_site_symmetry_multiplicity
 _atom_site_fract_x
 _atom_site_fract_y
 _atom_site_fract_z
 _atom_site_occupancy
  Na  Na0  1  0.74921100  0.28864800  0.75188400  1
  Na  Na1  1  0.24639100  0.23710400  0.74304100  1
  Na  Na2  1  0.24766800  0.76544500  0.74401600  1
  Na  Na3  1  0.74921100  0.71135200  0.25188400  1
  Na  Na4  1  0.24766800  0.23455500  0.24401600  1
  Na  Na5  1  0.24639100  0.76289600  0.24304100  1
  Ni  Ni6  1  0.65350800  0.99560000  0.93171000  1
  Ni  Ni7  1  0.35265600  0.49991600  0.56774100  1
  Ni  Ni8  1  0.65350800  0.00440000  0.43171000  1
  Ni  Ni9  1  0.35265600  0.50008400  0.06774100  1
  P  P10  1  0.57702700  0.50155300  0.92967900  1
  P  P11  1  0.42853900  0.00018500  0.57189200  1
  P  P12  1  0.57702700  0.49844700  0.42967900  1
  P  P13  1  0.42853900  0.99981500  0.07189200  1
  C  C14  1  0.08242000  0.50241400  0.90017600  1
  C  C15  1  0.08242000  0.49758600  0.40017600  1
  C  C16  1  0.92086400  0.99646500  0.60555100  1
  C  C17  1  0.92086400  0.00353500  0.10555100  1
  O  O18  1  0.86453100  0.01078600  0.96283300  1
  O  O19  1  0.66874700  0.31022900  0.93636200  1
  O  O20  1  0.67404500  0.69426800  0.95008000  1
  O  O21  1  0.57590200  0.00680800  0.71781700  1
  O  O22  1  0.53920800  0.49608100  0.55926700  1
  O  O23  1  0.45966000  0.00001700  0.93748200  1
  O  O24  1  0.42671300  0.50556800  0.78458300  1
  O  O25  1  0.32867800  0.18683600  0.55948400  1
  O  O26  1  0.33115900  0.81191200  0.56045500  1
  O  O27  1  0.18115300  0.50206900  0.85362700  1
  O  O28  1  0.18115300  0.49793100  0.35362700  1
  O  O29  1  0.14117900  0.49881900  0.54382600  1
  O  O30  1  0.05863700  0.99871800  0.69322900  1
  O  O31  1  0.05863700  0.00128200  0.19322900  1
  O  O32  1  0.94643700  0.50324400  0.81460200  1
  O  O33  1  0.94643700  0.49675600  0.31460200  1
  O  O34  1  0.86453100  0.98921400  0.46283300  1
  O  O35  1  0.82037900  0.00300700  0.64852700  1
  O  O36  1  0.82037900  0.99699300  0.14852700  1
  O  O37  1  0.67404500  0.30573200  0.45008000  1
  O  O38  1  0.66874700  0.68977100  0.43636200  1
  O  O39  1  0.57590200  0.99319200  0.21781700  1
  O  O40  1  0.53920800  0.50391900  0.05926700  1
  O  O41  1  0.45966000  0.99998300  0.43748200  1
  O  O42  1  0.42671300  0.49443200  0.28458300  1
  O  O43  1  0.32867800  0.81316400  0.05948400  1
  O  O44  1  0.33115900  0.18808800  0.06045500  1
  O  O45  1  0.14117900  0.50118100  0.04382600  1
