# generated using pymatgen
data_Li2ScFe(SiO3)4
_symmetry_space_group_name_H-M   'P 1'
_cell_length_a   9.90668000
_cell_length_b   8.92074600
_cell_length_c   5.39140749
_cell_angle_alpha   90.00000000
_cell_angle_beta   110.64026708
_cell_angle_gamma   90.00000000
_symmetry_Int_Tables_number   1
_chemical_formula_structural   Li2ScFe(SiO3)4
_chemical_formula_sum   'Li4 Sc2 Fe2 Si8 O24'
_cell_volume   445.88215483
_cell_formula_units_Z   2
loop_
 _symmetry_equiv_pos_site_id
 _symmetry_equiv_pos_as_xyz
  1  'x, y, z'
loop_
 _atom_site_type_symbol
 _atom_site_label
 _atom_site_symmetry_multiplicity
 _atom_site_fract_x
 _atom_site_fract_y
 _atom_site_fract_z
 _atom_site_occupancy
  Li  Li0  1  0.00000000  0.74650300  0.50000000  1
  Li  Li1  1  0.00000000  0.24826400  0.00000000  1
  Li  Li2  1  0.50000000  0.24650300  0.50000000  1
  Li  Li3  1  0.50000000  0.74826400  0.00000000  1
  Sc  Sc4  1  0.00000000  0.10287600  0.50000000  1
  Sc  Sc5  1  0.50000000  0.60287600  0.50000000  1
  Fe  Fe6  1  0.00000000  0.89233000  0.00000000  1
  Fe  Fe7  1  0.50000000  0.39233000  0.00000000  1
  Si  Si8  1  0.20393800  0.41277200  0.47864800  1
  Si  Si9  1  0.20310900  0.58928800  0.97458900  1
  Si  Si10  1  0.79606200  0.41277200  0.52135200  1
  Si  Si11  1  0.79689100  0.58928800  0.02541100  1
  Si  Si12  1  0.70393800  0.91277200  0.47864800  1
  Si  Si13  1  0.70310900  0.08928800  0.97458900  1
  Si  Si14  1  0.29606200  0.91277200  0.52135200  1
  Si  Si15  1  0.29689100  0.08928800  0.02541100  1
  O  O16  1  0.38251550  0.41184950  0.60417600  1
  O  O17  1  0.38137750  0.58446250  0.08817100  1
  O  O18  1  0.12999450  0.24937250  0.41193500  1
  O  O19  1  0.14501200  0.50050100  0.68919100  1
  O  O20  1  0.12837800  0.75371100  0.91186700  1
  O  O21  1  0.15043400  0.50305800  0.19439000  1
  O  O22  1  0.85498800  0.50050100  0.31080900  1
  O  O23  1  0.87000550  0.24937250  0.58806500  1
  O  O24  1  0.84956600  0.50305800  0.80561000  1
  O  O25  1  0.87162200  0.75371100  0.08813300  1
  O  O26  1  0.61748450  0.41184950  0.39582400  1
  O  O27  1  0.61862250  0.58446250  0.91182900  1
  O  O28  1  0.88251550  0.91184950  0.60417600  1
  O  O29  1  0.88137750  0.08446250  0.08817100  1
  O  O30  1  0.62999450  0.74937250  0.41193500  1
  O  O31  1  0.64501200  0.00050100  0.68919100  1
  O  O32  1  0.62837800  0.25371100  0.91186700  1
  O  O33  1  0.65043400  0.00305800  0.19439000  1
  O  O34  1  0.35498800  0.00050100  0.31080900  1
  O  O35  1  0.37000550  0.74937250  0.58806500  1
  O  O36  1  0.34956600  0.00305800  0.80561000  1
  O  O37  1  0.37162200  0.25371100  0.08813300  1
  O  O38  1  0.11748450  0.91184950  0.39582400  1
  O  O39  1  0.11862250  0.08446250  0.91182900  1
