# generated using pymatgen
data_Li2VP2O7
_symmetry_space_group_name_H-M   'P 1'
_cell_length_a   15.53555518
_cell_length_b   5.05921765
_cell_length_c   9.02007539
_cell_angle_alpha   90.00000000
_cell_angle_beta   114.50687142
_cell_angle_gamma   90.00000000
_symmetry_Int_Tables_number   1
_chemical_formula_structural   Li2VP2O7
_chemical_formula_sum   'Li8 V4 P8 O28'
_cell_volume   645.08876374
_cell_formula_units_Z   4
loop_
 _symmetry_equiv_pos_site_id
 _symmetry_equiv_pos_as_xyz
  1  'x, y, z'
loop_
 _atom_site_type_symbol
 _atom_site_label
 _atom_site_symmetry_multiplicity
 _atom_site_fract_x
 _atom_site_fract_y
 _atom_site_fract_z
 _atom_site_occupancy
  Li  Li0  1  0.19101700  0.64275200  0.05354800  1
  Li  Li1  1  0.80898300  0.64275200  0.44645200  1
  Li  Li2  1  0.19101700  0.35724800  0.55354800  1
  Li  Li3  1  0.80898300  0.35724800  0.94645200  1
  Li  Li4  1  0.69101700  0.14275200  0.05354800  1
  Li  Li5  1  0.30898300  0.14275200  0.44645200  1
  Li  Li6  1  0.69101700  0.85724800  0.55354800  1
  Li  Li7  1  0.30898300  0.85724800  0.94645200  1
  V  V8  1  0.00000000  0.50000000  0.50000000  1
  V  V9  1  0.00000000  0.50000000  0.00000000  1
  V  V10  1  0.50000000  0.00000000  0.50000000  1
  V  V11  1  0.50000000  0.00000000  0.00000000  1
  P  P12  1  0.89619550  0.86698650  0.18400800  1
  P  P13  1  0.10380450  0.86698650  0.31599200  1
  P  P14  1  0.89619550  0.13301350  0.68400800  1
  P  P15  1  0.10380450  0.13301350  0.81599200  1
  P  P16  1  0.39619550  0.36698650  0.18400800  1
  P  P17  1  0.60380450  0.36698650  0.31599200  1
  P  P18  1  0.39619550  0.63301350  0.68400800  1
  P  P19  1  0.60380450  0.63301350  0.81599200  1
  O  O20  1  0.89764700  0.34261900  0.55962100  1
  O  O21  1  0.10235300  0.34261900  0.94037900  1
  O  O22  1  0.89048350  0.26633050  0.83277600  1
  O  O23  1  0.82353950  0.08148650  0.10978300  1
  O  O24  1  0.89048350  0.73366950  0.33277600  1
  O  O25  1  0.00000000  0.01591050  0.25000000  1
  O  O26  1  0.82353950  0.91851350  0.60978300  1
  O  O27  1  0.17646050  0.08148650  0.39021700  1
  O  O28  1  0.00000000  0.98408950  0.75000000  1
  O  O29  1  0.10951650  0.26633050  0.66722400  1
  O  O30  1  0.17646050  0.91851350  0.89021700  1
  O  O31  1  0.10951650  0.73366950  0.16722400  1
  O  O32  1  0.89764700  0.65738100  0.05962100  1
  O  O33  1  0.10235300  0.65738100  0.44037900  1
  O  O34  1  0.39764700  0.84261900  0.55962100  1
  O  O35  1  0.60235300  0.84261900  0.94037900  1
  O  O36  1  0.39048350  0.76633050  0.83277600  1
  O  O37  1  0.32353950  0.58148650  0.10978300  1
  O  O38  1  0.39048350  0.23366950  0.33277600  1
  O  O39  1  0.50000000  0.51591050  0.25000000  1
  O  O40  1  0.32353950  0.41851350  0.60978300  1
  O  O41  1  0.67646050  0.58148650  0.39021700  1
  O  O42  1  0.50000000  0.48408950  0.75000000  1
  O  O43  1  0.60951650  0.76633050  0.66722400  1
  O  O44  1  0.67646050  0.41851350  0.89021700  1
  O  O45  1  0.60951650  0.23366950  0.16722400  1
  O  O46  1  0.39764700  0.15738100  0.05962100  1
  O  O47  1  0.60235300  0.15738100  0.44037900  1
