# generated using pymatgen
data_Bi12BO20
_symmetry_space_group_name_H-M   'P 1'
_cell_length_a   10.14488200
_cell_length_b   10.14488200
_cell_length_c   10.14488200
_cell_angle_alpha   90.00000000
_cell_angle_beta   90.00000000
_cell_angle_gamma   90.00000000
_symmetry_Int_Tables_number   1
_chemical_formula_structural   Bi12BO20
_chemical_formula_sum   'Bi24 B2 O40'
_cell_volume   1044.09736501
_cell_formula_units_Z   2
loop_
 _symmetry_equiv_pos_site_id
 _symmetry_equiv_pos_as_xyz
  1  'x, y, z'
loop_
 _atom_site_type_symbol
 _atom_site_label
 _atom_site_symmetry_multiplicity
 _atom_site_fract_x
 _atom_site_fract_y
 _atom_site_fract_z
 _atom_site_occupancy
  Bi  Bi0  1  0.81515800  0.32586400  0.51339200  1
  Bi  Bi1  1  0.98660800  0.31515800  0.17413600  1
  Bi  Bi2  1  0.01339200  0.68484200  0.17413600  1
  Bi  Bi3  1  0.17413600  0.01339200  0.68484200  1
  Bi  Bi4  1  0.17413600  0.98660800  0.31515800  1
  Bi  Bi5  1  0.18484200  0.32586400  0.48660800  1
  Bi  Bi6  1  0.31515800  0.17413600  0.98660800  1
  Bi  Bi7  1  0.32586400  0.48660800  0.18484200  1
  Bi  Bi8  1  0.32586400  0.51339200  0.81515800  1
  Bi  Bi9  1  0.48660800  0.18484200  0.32586400  1
  Bi  Bi10  1  0.51339200  0.81515800  0.32586400  1
  Bi  Bi11  1  0.68484200  0.17413600  0.01339200  1
  Bi  Bi12  1  0.31515800  0.82586400  0.01339200  1
  Bi  Bi13  1  0.48660800  0.81515800  0.67413600  1
  Bi  Bi14  1  0.51339200  0.18484200  0.67413600  1
  Bi  Bi15  1  0.67413600  0.51339200  0.18484200  1
  Bi  Bi16  1  0.67413600  0.48660800  0.81515800  1
  Bi  Bi17  1  0.68484200  0.82586400  0.98660800  1
  Bi  Bi18  1  0.81515800  0.67413600  0.48660800  1
  Bi  Bi19  1  0.82586400  0.98660800  0.68484200  1
  Bi  Bi20  1  0.82586400  0.01339200  0.31515800  1
  Bi  Bi21  1  0.98660800  0.68484200  0.82586400  1
  Bi  Bi22  1  0.01339200  0.31515800  0.82586400  1
  Bi  Bi23  1  0.18484200  0.67413600  0.51339200  1
  B  B24  1  0.00000000  0.00000000  0.00000000  1
  B  B25  1  0.50000000  0.50000000  0.50000000  1
  O  O26  1  0.80020950  0.19979050  0.19979050  1
  O  O27  1  0.86867300  0.48621800  0.25426700  1
  O  O28  1  0.98621800  0.24573300  0.63132700  1
  O  O29  1  0.01378200  0.24573300  0.36867300  1
  O  O30  1  0.08615200  0.08615200  0.08615200  1
  O  O31  1  0.58615200  0.41384800  0.41384800  1
  O  O32  1  0.13132700  0.51378200  0.25426700  1
  O  O33  1  0.19979050  0.80020950  0.19979050  1
  O  O34  1  0.24573300  0.36867300  0.01378200  1
  O  O35  1  0.24573300  0.63132700  0.98621800  1
  O  O36  1  0.25426700  0.86867300  0.48621800  1
  O  O37  1  0.25426700  0.13132700  0.51378200  1
  O  O38  1  0.30020950  0.30020950  0.30020950  1
  O  O39  1  0.36867300  0.01378200  0.24573300  1
  O  O40  1  0.41384800  0.41384800  0.58615200  1
  O  O41  1  0.41384800  0.58615200  0.41384800  1
  O  O42  1  0.48621800  0.25426700  0.86867300  1
  O  O43  1  0.51378200  0.25426700  0.13132700  1
  O  O44  1  0.63132700  0.98621800  0.24573300  1
  O  O45  1  0.19979050  0.19979050  0.80020950  1
  O  O46  1  0.30020950  0.69979050  0.69979050  1
  O  O47  1  0.36867300  0.98621800  0.75426700  1
  O  O48  1  0.48621800  0.74573300  0.13132700  1
  O  O49  1  0.51378200  0.74573300  0.86867300  1
  O  O50  1  0.58615200  0.58615200  0.58615200  1
  O  O51  1  0.08615200  0.91384800  0.91384800  1
  O  O52  1  0.63132700  0.01378200  0.75426700  1
  O  O53  1  0.69979050  0.30020950  0.69979050  1
  O  O54  1  0.74573300  0.86867300  0.51378200  1
  O  O55  1  0.74573300  0.13132700  0.48621800  1
  O  O56  1  0.75426700  0.36867300  0.98621800  1
  O  O57  1  0.75426700  0.63132700  0.01378200  1
  O  O58  1  0.80020950  0.80020950  0.80020950  1
  O  O59  1  0.86867300  0.51378200  0.74573300  1
  O  O60  1  0.91384800  0.91384800  0.08615200  1
  O  O61  1  0.91384800  0.08615200  0.91384800  1
  O  O62  1  0.98621800  0.75426700  0.36867300  1
  O  O63  1  0.01378200  0.75426700  0.63132700  1
  O  O64  1  0.13132700  0.48621800  0.74573300  1
  O  O65  1  0.69979050  0.69979050  0.30020950  1
