# generated using pymatgen
data_V3S
_symmetry_space_group_name_H-M   'P 1'
_cell_length_a   9.45215000
_cell_length_b   9.45215000
_cell_length_c   4.55003200
_cell_angle_alpha   90.00000000
_cell_angle_beta   90.00000000
_cell_angle_gamma   90.00000000
_symmetry_Int_Tables_number   1
_chemical_formula_structural   V3S
_chemical_formula_sum   'V24 S8'
_cell_volume   406.51414426
_cell_formula_units_Z   8
loop_
 _symmetry_equiv_pos_site_id
 _symmetry_equiv_pos_as_xyz
  1  'x, y, z'
loop_
 _atom_site_type_symbol
 _atom_site_label
 _atom_site_symmetry_multiplicity
 _atom_site_fract_x
 _atom_site_fract_y
 _atom_site_fract_z
 _atom_site_occupancy
  V  V0  1  0.80041450  0.80041450  0.26205050  1
  V  V1  1  0.80041450  0.19958550  0.73794950  1
  V  V2  1  0.69958550  0.30041450  0.23794950  1
  V  V3  1  0.69958550  0.69958550  0.76205050  1
  V  V4  1  0.64238800  0.00000000  0.00000000  1
  V  V5  1  0.50000000  0.85761200  0.50000000  1
  V  V6  1  0.50000000  0.14238800  0.50000000  1
  V  V7  1  0.35761200  0.00000000  0.00000000  1
  V  V8  1  0.59145350  0.59145350  0.26213050  1
  V  V9  1  0.59145350  0.40854650  0.73786950  1
  V  V10  1  0.90854650  0.09145350  0.23786950  1
  V  V11  1  0.90854650  0.90854650  0.76213050  1
  V  V12  1  0.30041450  0.30041450  0.76205050  1
  V  V13  1  0.30041450  0.69958550  0.23794950  1
  V  V14  1  0.19958550  0.80041450  0.73794950  1
  V  V15  1  0.19958550  0.19958550  0.26205050  1
  V  V16  1  0.14238800  0.50000000  0.50000000  1
  V  V17  1  0.00000000  0.35761200  0.00000000  1
  V  V18  1  0.00000000  0.64238800  0.00000000  1
  V  V19  1  0.85761200  0.50000000  0.50000000  1
  V  V20  1  0.09145350  0.09145350  0.76213050  1
  V  V21  1  0.09145350  0.90854650  0.23786950  1
  V  V22  1  0.40854650  0.59145350  0.73786950  1
  V  V23  1  0.40854650  0.40854650  0.26213050  1
  S  S24  1  0.28874900  0.00000000  0.50000000  1
  S  S25  1  0.50000000  0.21125100  0.00000000  1
  S  S26  1  0.50000000  0.78874900  0.00000000  1
  S  S27  1  0.71125100  0.00000000  0.50000000  1
  S  S28  1  0.78874900  0.50000000  0.00000000  1
  S  S29  1  0.00000000  0.71125100  0.50000000  1
  S  S30  1  0.00000000  0.28874900  0.50000000  1
  S  S31  1  0.21125100  0.50000000  0.00000000  1
