# generated using pymatgen
data_Li4Co3Ni3(TeO8)2
_symmetry_space_group_name_H-M   'P 1'
_cell_length_a   10.24055000
_cell_length_b   5.83843200
_cell_length_c   9.59038676
_cell_angle_alpha   90.00000000
_cell_angle_beta   91.64652667
_cell_angle_gamma   90.00000000
_symmetry_Int_Tables_number   1
_chemical_formula_structural   Li4Co3Ni3(TeO8)2
_chemical_formula_sum   'Li8 Co6 Ni6 Te4 O32'
_cell_volume   573.16053348
_cell_formula_units_Z   2
loop_
 _symmetry_equiv_pos_site_id
 _symmetry_equiv_pos_as_xyz
  1  'x, y, z'
loop_
 _atom_site_type_symbol
 _atom_site_label
 _atom_site_symmetry_multiplicity
 _atom_site_fract_x
 _atom_site_fract_y
 _atom_site_fract_z
 _atom_site_occupancy
  Li  Li0  1  0.65985400  0.00000000  0.90598800  1
  Li  Li1  1  0.50096600  0.50000000  0.98756500  1
  Li  Li2  1  0.50532500  0.50000000  0.48690100  1
  Li  Li3  1  0.83181000  0.50000000  0.41467100  1
  Li  Li4  1  0.15985400  0.50000000  0.90598800  1
  Li  Li5  1  0.00096600  0.00000000  0.98756500  1
  Li  Li6  1  0.00532500  0.00000000  0.48690100  1
  Li  Li7  1  0.33181000  0.00000000  0.41467100  1
  Co  Co8  1  0.58466900  0.24459600  0.21209000  1
  Co  Co9  1  0.58466900  0.75540400  0.21209000  1
  Co  Co10  1  0.67345100  0.50000000  0.71507600  1
  Co  Co11  1  0.08466900  0.74459600  0.21209000  1
  Co  Co12  1  0.08466900  0.25540400  0.21209000  1
  Co  Co13  1  0.17345100  0.00000000  0.71507600  1
  Ni  Ni14  1  0.82884700  0.00000000  0.21317000  1
  Ni  Ni15  1  0.91808250  0.74491450  0.71167800  1
  Ni  Ni16  1  0.91808250  0.25508550  0.71167800  1
  Ni  Ni17  1  0.32884700  0.50000000  0.21317000  1
  Ni  Ni18  1  0.41808250  0.24491450  0.71167800  1
  Ni  Ni19  1  0.41808250  0.75508550  0.71167800  1
  Te  Te20  1  0.66963200  0.00000000  0.48507200  1
  Te  Te21  1  0.83215300  0.50000000  0.98194100  1
  Te  Te22  1  0.16963200  0.50000000  0.48507200  1
  Te  Te23  1  0.33215300  0.00000000  0.98194100  1
  O  O24  1  0.59088950  0.25024850  0.59471900  1
  O  O25  1  0.51480900  0.00000000  0.35757300  1
  O  O26  1  0.65452900  0.00000000  0.11753800  1
  O  O27  1  0.50986800  0.50000000  0.29356100  1
  O  O28  1  0.51055100  0.50000000  0.79778800  1
  O  O29  1  0.59088950  0.74975150  0.59471900  1
  O  O30  1  0.73711000  0.22800900  0.35038600  1
  O  O31  1  0.73711000  0.77199100  0.35038600  1
  O  O32  1  0.67105400  0.50000000  0.08928200  1
  O  O33  1  0.83694300  0.00000000  0.58711600  1
  O  O34  1  0.75119700  0.71953900  0.84494500  1
  O  O35  1  0.75119700  0.28046100  0.84494500  1
  O  O36  1  0.82558200  0.50000000  0.61627600  1
  O  O37  1  0.91524650  0.74800050  0.08890100  1
  O  O38  1  0.97896000  0.50000000  0.85282700  1
  O  O39  1  0.91524650  0.25199950  0.08890100  1
  O  O40  1  0.09088950  0.75024850  0.59471900  1
  O  O41  1  0.01480900  0.50000000  0.35757300  1
  O  O42  1  0.15452900  0.50000000  0.11753800  1
  O  O43  1  0.00986800  0.00000000  0.29356100  1
  O  O44  1  0.01055100  0.00000000  0.79778800  1
  O  O45  1  0.09088950  0.24975150  0.59471900  1
  O  O46  1  0.23711000  0.72800900  0.35038600  1
  O  O47  1  0.23711000  0.27199100  0.35038600  1
  O  O48  1  0.17105400  0.00000000  0.08928200  1
  O  O49  1  0.33694300  0.50000000  0.58711600  1
  O  O50  1  0.25119700  0.21953900  0.84494500  1
  O  O51  1  0.25119700  0.78046100  0.84494500  1
  O  O52  1  0.32558200  0.00000000  0.61627600  1
  O  O53  1  0.41524650  0.24800050  0.08890100  1
  O  O54  1  0.47896000  0.00000000  0.85282700  1
  O  O55  1  0.41524650  0.75199950  0.08890100  1
