# generated using pymatgen
data_Li4Fe2Co3Ni3O16
_symmetry_space_group_name_H-M   'P 1'
_cell_length_a   10.05547800
_cell_length_b   5.69493800
_cell_length_c   9.41408513
_cell_angle_alpha   90.00000000
_cell_angle_beta   91.60971927
_cell_angle_gamma   90.00000000
_symmetry_Int_Tables_number   1
_chemical_formula_structural   Li4Fe2Co3Ni3O16
_chemical_formula_sum   'Li8 Fe4 Co6 Ni6 O32'
_cell_volume   538.88788485
_cell_formula_units_Z   2
loop_
 _symmetry_equiv_pos_site_id
 _symmetry_equiv_pos_as_xyz
  1  'x, y, z'
loop_
 _atom_site_type_symbol
 _atom_site_label
 _atom_site_symmetry_multiplicity
 _atom_site_fract_x
 _atom_site_fract_y
 _atom_site_fract_z
 _atom_site_occupancy
  Li  Li0  1  0.66194100  0.00000000  0.89474700  1
  Li  Li1  1  0.99794800  0.00000000  0.99575200  1
  Li  Li2  1  0.50355700  0.50000000  0.49815500  1
  Li  Li3  1  0.83364600  0.50000000  0.39511000  1
  Li  Li4  1  0.16194100  0.50000000  0.89474700  1
  Li  Li5  1  0.49794800  0.50000000  0.99575200  1
  Li  Li6  1  0.00355700  0.00000000  0.49815500  1
  Li  Li7  1  0.33364600  0.00000000  0.39511000  1
  Fe  Fe8  1  0.67264800  0.00000000  0.49226300  1
  Fe  Fe9  1  0.83158900  0.50000000  0.98601500  1
  Fe  Fe10  1  0.17264800  0.50000000  0.49226300  1
  Fe  Fe11  1  0.33158900  0.00000000  0.98601500  1
  Co  Co12  1  0.58265800  0.24674300  0.21300800  1
  Co  Co13  1  0.58265800  0.75325700  0.21300800  1
  Co  Co14  1  0.66989600  0.50000000  0.71292700  1
  Co  Co15  1  0.08265800  0.74674300  0.21300800  1
  Co  Co16  1  0.08265800  0.25325700  0.21300800  1
  Co  Co17  1  0.16989600  0.00000000  0.71292700  1
  Ni  Ni18  1  0.82915100  0.00000000  0.21376300  1
  Ni  Ni19  1  0.91558450  0.74606350  0.71467300  1
  Ni  Ni20  1  0.91558450  0.25393650  0.71467300  1
  Ni  Ni21  1  0.32915100  0.50000000  0.21376300  1
  Ni  Ni22  1  0.41558450  0.24606350  0.71467300  1
  Ni  Ni23  1  0.41558450  0.75393650  0.71467300  1
  O  O24  1  0.59195700  0.26067200  0.60129700  1
  O  O25  1  0.51872400  0.00000000  0.32918600  1
  O  O26  1  0.66024800  0.00000000  0.10848500  1
  O  O27  1  0.50255000  0.50000000  0.30932600  1
  O  O28  1  0.50451500  0.50000000  0.80629100  1
  O  O29  1  0.59195700  0.73932800  0.60129700  1
  O  O30  1  0.73605450  0.22592650  0.33213100  1
  O  O31  1  0.73605450  0.77407350  0.33213100  1
  O  O32  1  0.65771600  0.50000000  0.10950200  1
  O  O33  1  0.84334100  0.00000000  0.60001700  1
  O  O34  1  0.74960300  0.71845000  0.83903000  1
  O  O35  1  0.74960300  0.28155000  0.83903000  1
  O  O36  1  0.83107500  0.50000000  0.61199400  1
  O  O37  1  0.92172050  0.75286650  0.10430000  1
  O  O38  1  0.97924000  0.50000000  0.83578100  1
  O  O39  1  0.92172050  0.24713350  0.10430000  1
  O  O40  1  0.09195700  0.76067200  0.60129700  1
  O  O41  1  0.01872400  0.50000000  0.32918600  1
  O  O42  1  0.16024800  0.50000000  0.10848500  1
  O  O43  1  0.00255000  0.00000000  0.30932600  1
  O  O44  1  0.00451500  0.00000000  0.80629100  1
  O  O45  1  0.09195700  0.23932800  0.60129700  1
  O  O46  1  0.23605450  0.72592650  0.33213100  1
  O  O47  1  0.23605450  0.27407350  0.33213100  1
  O  O48  1  0.15771600  0.00000000  0.10950200  1
  O  O49  1  0.34334100  0.50000000  0.60001700  1
  O  O50  1  0.24960300  0.21845000  0.83903000  1
  O  O51  1  0.24960300  0.78155000  0.83903000  1
  O  O52  1  0.33107500  0.00000000  0.61199400  1
  O  O53  1  0.42172050  0.25286650  0.10430000  1
  O  O54  1  0.47924000  0.00000000  0.83578100  1
  O  O55  1  0.42172050  0.74713350  0.10430000  1
