# generated using pymatgen
data_La2Ti2CrO9
_symmetry_space_group_name_H-M   'P 1'
_cell_length_a   5.46354200
_cell_length_b   5.45221200
_cell_length_c   23.70554438
_cell_angle_alpha   90.00000000
_cell_angle_beta   90.03061586
_cell_angle_gamma   90.00000000
_symmetry_Int_Tables_number   1
_chemical_formula_structural   La2Ti2CrO9
_chemical_formula_sum   'La8 Ti8 Cr4 O36'
_cell_volume   706.14988281
_cell_formula_units_Z   4
loop_
 _symmetry_equiv_pos_site_id
 _symmetry_equiv_pos_as_xyz
  1  'x, y, z'
loop_
 _atom_site_type_symbol
 _atom_site_label
 _atom_site_symmetry_multiplicity
 _atom_site_fract_x
 _atom_site_fract_y
 _atom_site_fract_z
 _atom_site_occupancy
  La  La0  1  0.24262300  0.50978600  0.66673200  1
  La  La1  1  0.75737700  0.00978600  0.33326800  1
  La  La2  1  0.75053300  0.99700100  0.83609200  1
  La  La3  1  0.75011500  0.99100900  0.50143800  1
  La  La4  1  0.75426900  0.99566200  0.16386800  1
  La  La5  1  0.24573100  0.49566200  0.83613200  1
  La  La6  1  0.24946700  0.49700100  0.16390800  1
  La  La7  1  0.24988500  0.49100900  0.49856200  1
  Ti  Ti8  1  0.24907300  0.99814400  0.07626700  1
  Ti  Ti9  1  0.24870300  0.99771400  0.92398300  1
  Ti  Ti10  1  0.25071300  0.00115600  0.58767000  1
  Ti  Ti11  1  0.25060000  0.00105500  0.25281100  1
  Ti  Ti12  1  0.75129700  0.49771400  0.07601700  1
  Ti  Ti13  1  0.74928700  0.50115600  0.41233000  1
  Ti  Ti14  1  0.74940000  0.50105500  0.74718900  1
  Ti  Ti15  1  0.75092700  0.49814400  0.92373300  1
  Cr  Cr16  1  0.25036900  0.00253700  0.74721700  1
  Cr  Cr17  1  0.24959700  0.00025300  0.41509400  1
  Cr  Cr18  1  0.75040300  0.50025300  0.58490600  1
  Cr  Cr19  1  0.74963100  0.50253700  0.25278300  1
  O  O20  1  0.27444700  0.99823200  0.99997700  1
  O  O21  1  0.29142100  0.99685600  0.66469800  1
  O  O22  1  0.29586300  0.99541700  0.33822200  1
  O  O23  1  0.00118500  0.25013400  0.08996000  1
  O  O24  1  0.99945800  0.24888400  0.90988200  1
  O  O25  1  0.03189000  0.27590300  0.74143400  1
  O  O26  1  0.03332900  0.27835100  0.58687100  1
  O  O27  1  0.00479700  0.25568100  0.41383200  1
  O  O28  1  0.00155300  0.25623100  0.26005600  1
  O  O29  1  0.00054200  0.74888400  0.09011800  1
  O  O30  1  0.99881500  0.75013400  0.91004000  1
  O  O31  1  0.99844700  0.75623100  0.73994400  1
  O  O32  1  0.99520300  0.75568100  0.58616800  1
  O  O33  1  0.96667100  0.77835100  0.41312900  1
  O  O34  1  0.96811000  0.77590300  0.25856600  1
  O  O35  1  0.72555300  0.49823200  0.00002300  1
  O  O36  1  0.70413700  0.49541700  0.66177800  1
  O  O37  1  0.70857900  0.49685600  0.33530200  1
  O  O38  1  0.78701000  0.50232300  0.82715400  1
  O  O39  1  0.79200400  0.50207900  0.17369900  1
  O  O40  1  0.79834600  0.50291600  0.50159400  1
  O  O41  1  0.50063300  0.24764600  0.90174600  1
  O  O42  1  0.52255700  0.22921200  0.24506100  1
  O  O43  1  0.51379000  0.24424900  0.56959200  1
  O  O44  1  0.51689100  0.23276800  0.42906900  1
  O  O45  1  0.51020300  0.23734800  0.75622600  1
  O  O46  1  0.50119800  0.24857700  0.09828000  1
  O  O47  1  0.49880200  0.74857700  0.90172000  1
  O  O48  1  0.48979700  0.73734800  0.24377400  1
  O  O49  1  0.48310900  0.73276800  0.57093100  1
  O  O50  1  0.47744300  0.72921200  0.75493900  1
  O  O51  1  0.48621000  0.74424900  0.43040800  1
  O  O52  1  0.49936700  0.74764600  0.09825400  1
  O  O53  1  0.20799600  0.00207900  0.82630100  1
  O  O54  1  0.20165400  0.00291600  0.49840600  1
  O  O55  1  0.21299000  0.00232300  0.17284600  1
