# generated using pymatgen
data_Cr2CoNi3(PO4)6
_symmetry_space_group_name_H-M   'P 1'
_cell_length_a   8.59136761
_cell_length_b   8.59136761
_cell_length_c   20.13413243
_cell_angle_alpha   90.00000000
_cell_angle_beta   90.00000000
_cell_angle_gamma   120.00000000
_symmetry_Int_Tables_number   1
_chemical_formula_structural   Cr2CoNi3(PO4)6
_chemical_formula_sum   'Cr6 Co3 Ni9 P18 O72'
_cell_volume   1287.02847856
_cell_formula_units_Z   3
loop_
 _symmetry_equiv_pos_site_id
 _symmetry_equiv_pos_as_xyz
  1  'x, y, z'
loop_
 _atom_site_type_symbol
 _atom_site_label
 _atom_site_symmetry_multiplicity
 _atom_site_fract_x
 _atom_site_fract_y
 _atom_site_fract_z
 _atom_site_occupancy
  Cr  Cr0  1  0.33333333  0.66666667  0.66721767  1
  Cr  Cr1  1  0.33333333  0.66666667  0.16694067  1
  Cr  Cr2  1  0.00000000  0.00000000  0.00055100  1
  Cr  Cr3  1  0.00000000  0.00000000  0.50027400  1
  Cr  Cr4  1  0.66666667  0.33333333  0.33388433  1
  Cr  Cr5  1  0.66666667  0.33333333  0.83360733  1
  Co  Co6  1  0.33333333  0.66666667  0.52695067  1
  Co  Co7  1  0.00000000  0.00000000  0.86028400  1
  Co  Co8  1  0.66666667  0.33333333  0.19361733  1
  Ni  Ni9  1  0.33333333  0.66666667  0.02441567  1
  Ni  Ni10  1  0.33333333  0.66666667  0.80864967  1
  Ni  Ni11  1  0.33333333  0.66666667  0.30848267  1
  Ni  Ni12  1  0.00000000  0.00000000  0.35774900  1
  Ni  Ni13  1  0.00000000  0.00000000  0.14198300  1
  Ni  Ni14  1  0.00000000  0.00000000  0.64181600  1
  Ni  Ni15  1  0.66666667  0.33333333  0.69108233  1
  Ni  Ni16  1  0.66666667  0.33333333  0.47531633  1
  Ni  Ni17  1  0.66666667  0.33333333  0.97514933  1
  P  P18  1  0.37412333  0.03973267  0.08460467  1
  P  P19  1  0.66560933  0.62587667  0.08460467  1
  P  P20  1  0.96026733  0.33439067  0.08460467  1
  P  P21  1  0.70189133  0.00046367  0.24852367  1
  P  P22  1  0.99953633  0.70142767  0.24852367  1
  P  P23  1  0.29857233  0.29810867  0.24852367  1
  P  P24  1  0.04079000  0.37306600  0.41793800  1
  P  P25  1  0.33227600  0.95921000  0.41793800  1
  P  P26  1  0.62693400  0.66772400  0.41793800  1
  P  P27  1  0.36855800  0.33379700  0.58185700  1
  P  P28  1  0.66620300  0.03476100  0.58185700  1
  P  P29  1  0.96523900  0.63144200  0.58185700  1
  P  P30  1  0.70745667  0.70639933  0.75127133  1
  P  P31  1  0.99894267  0.29254333  0.75127133  1
  P  P32  1  0.29360067  0.00105733  0.75127133  1
  P  P33  1  0.03522467  0.66713033  0.91519033  1
  P  P34  1  0.33286967  0.36809433  0.91519033  1
  P  P35  1  0.63190567  0.96477533  0.91519033  1
  O  O36  1  0.31250867  0.85595533  0.35437633  1
  O  O37  1  0.54344667  0.68749133  0.35437633  1
  O  O38  1  0.14404467  0.45655333  0.35437633  1
  O  O39  1  0.18285300  0.01637600  0.07088600  1
  O  O40  1  0.46823667  0.14528533  0.14762433  1
  O  O41  1  0.34149967  0.84605733  0.09813933  1
  O  O42  1  0.83352300  0.81714700  0.07088600  1
  O  O43  1  0.50455767  0.65850033  0.09813933  1
  O  O44  1  0.80471733  0.01467467  0.18611367  1
  O  O45  1  0.15394267  0.49544233  0.09813933  1
  O  O46  1  0.67743633  0.17241867  0.25976767  1
  O  O47  1  0.98532533  0.79004267  0.18611367  1
  O  O48  1  0.67704867  0.53176333  0.14762433  1
  O  O49  1  0.98362400  0.16647700  0.07088600  1
  O  O50  1  0.50781367  0.83898133  0.23669333  1
  O  O51  1  0.85471467  0.32295133  0.14762433  1
  O  O52  1  0.16101867  0.66883233  0.23669333  1
  O  O53  1  0.82758133  0.50501767  0.25976767  1
  O  O54  1  0.33116767  0.49218633  0.23669333  1
  O  O55  1  0.20995733  0.19528267  0.18611367  1
  O  O56  1  0.49498233  0.32256367  0.25976767  1
  O  O57  1  0.53475200  0.87772400  0.97904400  1
  O  O58  1  0.12227600  0.65702800  0.97904400  1
  O  O59  1  0.34297200  0.46524800  0.97904400  1
  O  O60  1  0.97917533  0.18928867  0.68770967  1
  O  O61  1  0.21011333  0.02082467  0.68770967  1
  O  O62  1  0.81071133  0.78988667  0.68770967  1
  O  O63  1  0.84951967  0.34970933  0.40421933  1
  O  O64  1  0.13490333  0.47861867  0.48095767  1
  O  O65  1  0.00816633  0.17939067  0.43147267  1
  O  O66  1  0.50018967  0.15048033  0.40421933  1
  O  O67  1  0.17122433  0.99183367  0.43147267  1
  O  O68  1  0.47138400  0.34800800  0.51944700  1
  O  O69  1  0.82060933  0.82877567  0.43147267  1
  O  O70  1  0.34410300  0.50575200  0.59310100  1
  O  O71  1  0.65199200  0.12337600  0.51944700  1
  O  O72  1  0.34371533  0.86509667  0.48095767  1
  O  O73  1  0.65029067  0.49981033  0.40421933  1
  O  O74  1  0.17448033  0.17231467  0.57002667  1
  O  O75  1  0.52138133  0.65628467  0.48095767  1
  O  O76  1  0.82768533  0.00216567  0.57002667  1
  O  O77  1  0.49424800  0.83835100  0.59310100  1
  O  O78  1  0.99783433  0.82551967  0.57002667  1
  O  O79  1  0.87662400  0.52861600  0.51944700  1
  O  O80  1  0.16164900  0.65589700  0.59310100  1
  O  O81  1  0.20141867  0.21105733  0.31237733  1
  O  O82  1  0.78894267  0.99036133  0.31237733  1
  O  O83  1  0.00963867  0.79858133  0.31237733  1
  O  O84  1  0.64584200  0.52262200  0.02104300  1
  O  O85  1  0.87678000  0.35415800  0.02104300  1
  O  O86  1  0.47737800  0.12322000  0.02104300  1
  O  O87  1  0.51618633  0.68304267  0.73755267  1
  O  O88  1  0.80157000  0.81195200  0.81429100  1
  O  O89  1  0.67483300  0.51272400  0.76480600  1
  O  O90  1  0.16685633  0.48381367  0.73755267  1
  O  O91  1  0.83789100  0.32516700  0.76480600  1
  O  O92  1  0.13805067  0.68134133  0.85278033  1
  O  O93  1  0.48727600  0.16210900  0.76480600  1
  O  O94  1  0.01076967  0.83908533  0.92643433  1
  O  O95  1  0.31865867  0.45670933  0.85278033  1
  O  O96  1  0.01038200  0.19843000  0.81429100  1
  O  O97  1  0.31695733  0.83314367  0.73755267  1
  O  O98  1  0.84114700  0.50564800  0.90336000  1
  O  O99  1  0.18804800  0.98961800  0.81429100  1
  O  O100  1  0.49435200  0.33549900  0.90336000  1
  O  O101  1  0.16091467  0.17168433  0.92643433  1
  O  O102  1  0.66450100  0.15885300  0.90336000  1
  O  O103  1  0.54329067  0.86194933  0.85278033  1
  O  O104  1  0.82831567  0.98923033  0.92643433  1
  O  O105  1  0.86808533  0.54439067  0.64571067  1
  O  O106  1  0.45560933  0.32369467  0.64571067  1
  O  O107  1  0.67630533  0.13191467  0.64571067  1
