# generated using pymatgen
data_Mn21Sn9O40
_symmetry_space_group_name_H-M   'P 1'
_cell_length_a   14.17313600
_cell_length_b   14.17313600
_cell_length_c   8.97280600
_cell_angle_alpha   90.00000000
_cell_angle_beta   90.00000000
_cell_angle_gamma   90.00000000
_symmetry_Int_Tables_number   1
_chemical_formula_structural   Mn21Sn9O40
_chemical_formula_sum   'Mn42 Sn18 O80'
_cell_volume   1802.43738621
_cell_formula_units_Z   2
loop_
 _symmetry_equiv_pos_site_id
 _symmetry_equiv_pos_as_xyz
  1  'x, y, z'
loop_
 _atom_site_type_symbol
 _atom_site_label
 _atom_site_symmetry_multiplicity
 _atom_site_fract_x
 _atom_site_fract_y
 _atom_site_fract_z
 _atom_site_occupancy
  Mn  Mn0  1  0.25283650  0.00066350  0.37439650  1
  Mn  Mn1  1  0.30256050  0.85107150  0.12554350  1
  Mn  Mn2  1  0.45010650  0.90038250  0.87980350  1
  Mn  Mn3  1  0.64993850  0.29979450  0.87519650  1
  Mn  Mn4  1  0.50066350  0.24716350  0.12560350  1
  Mn  Mn5  1  0.49933650  0.75283650  0.12560350  1
  Mn  Mn6  1  0.35006150  0.70020550  0.87519650  1
  Mn  Mn7  1  0.40038250  0.04989350  0.62019650  1
  Mn  Mn8  1  0.69743950  0.14892850  0.12554350  1
  Mn  Mn9  1  0.54989350  0.09961750  0.87980350  1
  Mn  Mn10  1  0.50000000  0.00000000  0.25000000  1
  Mn  Mn11  1  0.59961750  0.95010650  0.62019650  1
  Mn  Mn12  1  0.20020550  0.14993850  0.62480350  1
  Mn  Mn13  1  0.89990500  0.05027800  0.12512000  1
  Mn  Mn14  1  0.55027800  0.60009500  0.37488000  1
  Mn  Mn15  1  0.74716350  0.99933650  0.37439650  1
  Mn  Mn16  1  0.10009500  0.94972200  0.12512000  1
  Mn  Mn17  1  0.44972200  0.39990500  0.37488000  1
  Mn  Mn18  1  0.79979450  0.85006150  0.62480350  1
  Mn  Mn19  1  0.64892850  0.80256050  0.37445650  1
  Mn  Mn20  1  0.35107150  0.19743950  0.37445650  1
  Mn  Mn21  1  0.75283650  0.50066350  0.87439650  1
  Mn  Mn22  1  0.80256050  0.35107150  0.62554350  1
  Mn  Mn23  1  0.95010650  0.40038250  0.37980350  1
  Mn  Mn24  1  0.14993850  0.79979450  0.37519650  1
  Mn  Mn25  1  0.00066350  0.74716350  0.62560350  1
  Mn  Mn26  1  0.99933650  0.25283650  0.62560350  1
  Mn  Mn27  1  0.85006150  0.20020550  0.37519650  1
  Mn  Mn28  1  0.90038250  0.54989350  0.12019650  1
  Mn  Mn29  1  0.19743950  0.64892850  0.62554350  1
  Mn  Mn30  1  0.04989350  0.59961750  0.37980350  1
  Mn  Mn31  1  0.00000000  0.50000000  0.75000000  1
  Mn  Mn32  1  0.09961750  0.45010650  0.12019650  1
  Mn  Mn33  1  0.70020550  0.64993850  0.12480350  1
  Mn  Mn34  1  0.39990500  0.55027800  0.62512000  1
  Mn  Mn35  1  0.05027800  0.10009500  0.87488000  1
  Mn  Mn36  1  0.24716350  0.49933650  0.87439650  1
  Mn  Mn37  1  0.60009500  0.44972200  0.62512000  1
  Mn  Mn38  1  0.94972200  0.89990500  0.87488000  1
  Mn  Mn39  1  0.29979450  0.35006150  0.12480350  1
  Mn  Mn40  1  0.14892850  0.30256050  0.87445650  1
  Mn  Mn41  1  0.85107150  0.69743950  0.87445650  1
  Sn  Sn42  1  0.19989850  0.90001050  0.74999550  1
  Sn  Sn43  1  0.30076850  0.09988550  0.99986050  1
  Sn  Sn44  1  0.40011450  0.80076850  0.50013950  1
  Sn  Sn45  1  0.59988550  0.19923150  0.50013950  1
  Sn  Sn46  1  0.80010150  0.09998950  0.74999550  1
  Sn  Sn47  1  0.59998950  0.69989850  0.75000450  1
  Sn  Sn48  1  0.00000000  0.00000000  0.50000000  1
  Sn  Sn49  1  0.69923150  0.90011450  0.99986050  1
  Sn  Sn50  1  0.40001050  0.30010150  0.75000450  1
  Sn  Sn51  1  0.69989850  0.40001050  0.24999550  1
  Sn  Sn52  1  0.80076850  0.59988550  0.49986050  1
  Sn  Sn53  1  0.90011450  0.30076850  0.00013950  1
  Sn  Sn54  1  0.09988550  0.69923150  0.00013950  1
  Sn  Sn55  1  0.30010150  0.59998950  0.24999550  1
  Sn  Sn56  1  0.09998950  0.19989850  0.25000450  1
  Sn  Sn57  1  0.50000000  0.50000000  0.00000000  1
  Sn  Sn58  1  0.19923150  0.40011450  0.49986050  1
  Sn  Sn59  1  0.90001050  0.80010150  0.25000450  1
  O  O60  1  0.25124350  0.00399850  0.62161950  1
  O  O61  1  0.24775850  0.99662350  0.12883950  1
  O  O62  1  0.45150500  0.90326400  0.63398200  1
  O  O63  1  0.49662350  0.25224150  0.37116050  1
  O  O64  1  0.65367550  0.30346050  0.62792850  1
  O  O65  1  0.29615700  0.85165500  0.37083300  1
  O  O66  1  0.30333500  0.84847100  0.87884700  1
  O  O67  1  0.64841100  0.29689000  0.12082100  1
  O  O68  1  0.44607300  0.89224000  0.11335300  1
  O  O69  1  0.50399850  0.24875650  0.87838050  1
  O  O70  1  0.69666500  0.15152900  0.87884700  1
  O  O71  1  0.35158900  0.70311000  0.12082100  1
  O  O72  1  0.49600150  0.75124350  0.87838050  1
  O  O73  1  0.55392700  0.10776000  0.11335300  1
  O  O74  1  0.39224000  0.05392700  0.38664700  1
  O  O75  1  0.50337650  0.74775850  0.37116050  1
  O  O76  1  0.34632450  0.69653950  0.62792850  1
  O  O77  1  0.70384300  0.14834500  0.37083300  1
  O  O78  1  0.54849500  0.09673600  0.63398200  1
  O  O79  1  0.40326400  0.04849500  0.86601800  1
  O  O80  1  0.19653950  0.15367550  0.87207150  1
  O  O81  1  0.75224150  0.00337650  0.12883950  1
  O  O82  1  0.89480900  0.05043900  0.37134800  1
  O  O83  1  0.59673600  0.95150500  0.86601800  1
  O  O84  1  0.55043900  0.60519100  0.12865200  1
  O  O85  1  0.20311000  0.14841100  0.37917900  1
  O  O86  1  0.54752550  0.59639250  0.62092550  1
  O  O87  1  0.74875650  0.99600150  0.62161950  1
  O  O88  1  0.90360750  0.04752550  0.87907450  1
  O  O89  1  0.60776000  0.94607300  0.38664700  1
  O  O90  1  0.09639250  0.95247450  0.87907450  1
  O  O91  1  0.65152900  0.80333500  0.62115300  1
  O  O92  1  0.45247450  0.40360750  0.62092550  1
  O  O93  1  0.79689000  0.85158900  0.37917900  1
  O  O94  1  0.44956100  0.39480900  0.12865200  1
  O  O95  1  0.64834500  0.79615700  0.12916700  1
  O  O96  1  0.10519100  0.94956100  0.37134800  1
  O  O97  1  0.80346050  0.84632450  0.87207150  1
  O  O98  1  0.35165500  0.20384300  0.12916700  1
  O  O99  1  0.34847100  0.19666500  0.62115300  1
  O  O100  1  0.75124350  0.50399850  0.12161950  1
  O  O101  1  0.74775850  0.49662350  0.62883950  1
  O  O102  1  0.95150500  0.40326400  0.13398200  1
  O  O103  1  0.99662350  0.75224150  0.87116050  1
  O  O104  1  0.15367550  0.80346050  0.12792850  1
  O  O105  1  0.79615700  0.35165500  0.87083300  1
  O  O106  1  0.80333500  0.34847100  0.37884700  1
  O  O107  1  0.14841100  0.79689000  0.62082100  1
  O  O108  1  0.94607300  0.39224000  0.61335300  1
  O  O109  1  0.00399850  0.74875650  0.37838050  1
  O  O110  1  0.19666500  0.65152900  0.37884700  1
  O  O111  1  0.85158900  0.20311000  0.62082100  1
  O  O112  1  0.99600150  0.25124350  0.37838050  1
  O  O113  1  0.05392700  0.60776000  0.61335300  1
  O  O114  1  0.89224000  0.55392700  0.88664700  1
  O  O115  1  0.00337650  0.24775850  0.87116050  1
  O  O116  1  0.84632450  0.19653950  0.12792850  1
  O  O117  1  0.20384300  0.64834500  0.87083300  1
  O  O118  1  0.04849500  0.59673600  0.13398200  1
  O  O119  1  0.90326400  0.54849500  0.36601800  1
  O  O120  1  0.69653950  0.65367550  0.37207150  1
  O  O121  1  0.25224150  0.50337650  0.62883950  1
  O  O122  1  0.39480900  0.55043900  0.87134800  1
  O  O123  1  0.09673600  0.45150500  0.36601800  1
  O  O124  1  0.05043900  0.10519100  0.62865200  1
  O  O125  1  0.70311000  0.64841100  0.87917900  1
  O  O126  1  0.04752550  0.09639250  0.12092550  1
  O  O127  1  0.24875650  0.49600150  0.12161950  1
  O  O128  1  0.40360750  0.54752550  0.37907450  1
  O  O129  1  0.10776000  0.44607300  0.88664700  1
  O  O130  1  0.59639250  0.45247450  0.37907450  1
  O  O131  1  0.15152900  0.30333500  0.12115300  1
  O  O132  1  0.95247450  0.90360750  0.12092550  1
  O  O133  1  0.29689000  0.35158900  0.87917900  1
  O  O134  1  0.94956100  0.89480900  0.62865200  1
  O  O135  1  0.14834500  0.29615700  0.62916700  1
  O  O136  1  0.60519100  0.44956100  0.87134800  1
  O  O137  1  0.30346050  0.34632450  0.37207150  1
  O  O138  1  0.85165500  0.70384300  0.62916700  1
  O  O139  1  0.84847100  0.69666500  0.12115300  1
