# generated using pymatgen
data_Li2Mn2OF6
_symmetry_space_group_name_H-M   'P 1'
_cell_length_a   5.48276270
_cell_length_b   6.43143609
_cell_length_c   8.85508491
_cell_angle_alpha   72.08109890
_cell_angle_beta   76.27725872
_cell_angle_gamma   85.06082405
_symmetry_Int_Tables_number   1
_chemical_formula_structural   Li2Mn2OF6
_chemical_formula_sum   'Li4 Mn4 O2 F12'
_cell_volume   288.59229162
_cell_formula_units_Z   2
loop_
 _symmetry_equiv_pos_site_id
 _symmetry_equiv_pos_as_xyz
  1  'x, y, z'
loop_
 _atom_site_type_symbol
 _atom_site_label
 _atom_site_symmetry_multiplicity
 _atom_site_fract_x
 _atom_site_fract_y
 _atom_site_fract_z
 _atom_site_occupancy
  Li  Li0  1  0.08557200  0.39507200  0.27012600  1
  Li  Li1  1  0.54927800  0.24191700  0.35998400  1
  Li  Li2  1  0.45072200  0.75808300  0.64001600  1
  Li  Li3  1  0.91442800  0.60492800  0.72987400  1
  Mn  Mn4  1  0.33061000  0.99969200  0.17712600  1
  Mn  Mn5  1  0.78910100  0.79661300  0.30343900  1
  Mn  Mn6  1  0.21089900  0.20338700  0.69656100  1
  Mn  Mn7  1  0.66939000  0.00030800  0.82287400  1
  O  O8  1  0.46383000  0.89749500  0.36120000  1
  O  O9  1  0.53617000  0.10250500  0.63880000  1
  F  F10  1  0.40467200  0.28940600  0.15537000  1
  F  F11  1  0.93501200  0.08953500  0.26126800  1
  F  F12  1  0.70707900  0.91651200  0.05119800  1
  F  F13  1  0.14836100  0.72610500  0.22070900  1
  F  F14  1  0.73929900  0.50408000  0.29645800  1
  F  F15  1  0.20120000  0.29528600  0.46080500  1
  F  F16  1  0.79880000  0.70471400  0.53919500  1
  F  F17  1  0.26070100  0.49592000  0.70354200  1
  F  F18  1  0.85163900  0.27389500  0.77929100  1
  F  F19  1  0.29292100  0.08348800  0.94880200  1
  F  F20  1  0.06498800  0.91046500  0.73873200  1
  F  F21  1  0.59532800  0.71059400  0.84463000  1
