# generated using pymatgen
data_V3O5F3
_symmetry_space_group_name_H-M   'P 1'
_cell_length_a   9.08316000
_cell_length_b   11.34651800
_cell_length_c   5.01579684
_cell_angle_alpha   90.00000000
_cell_angle_beta   90.57870237
_cell_angle_gamma   90.00000000
_symmetry_Int_Tables_number   1
_chemical_formula_structural   V3O5F3
_chemical_formula_sum   'V12 O20 F12'
_cell_volume   516.91288243
_cell_formula_units_Z   4
loop_
 _symmetry_equiv_pos_site_id
 _symmetry_equiv_pos_as_xyz
  1  'x, y, z'
loop_
 _atom_site_type_symbol
 _atom_site_label
 _atom_site_symmetry_multiplicity
 _atom_site_fract_x
 _atom_site_fract_y
 _atom_site_fract_z
 _atom_site_occupancy
  V  V0  1  0.74003700  0.91112400  0.27759600  1
  V  V1  1  0.50080800  0.82010400  0.76390700  1
  V  V2  1  0.74003700  0.08887600  0.77759600  1
  V  V3  1  0.25094200  0.92012700  0.21032900  1
  V  V4  1  0.50080800  0.17989600  0.26390700  1
  V  V5  1  0.25094200  0.07987300  0.71032900  1
  V  V6  1  0.24003700  0.41112400  0.27759600  1
  V  V7  1  0.00080800  0.32010400  0.76390700  1
  V  V8  1  0.24003700  0.58887600  0.77759600  1
  V  V9  1  0.75094200  0.42012700  0.21032900  1
  V  V10  1  0.00080800  0.67989600  0.26390700  1
  V  V11  1  0.75094200  0.57987300  0.71032900  1
  O  O12  1  0.63320150  0.69386050  0.64211300  1
  O  O13  1  0.61801400  0.83200300  0.08098300  1
  O  O14  1  0.36833450  0.69524850  0.86360800  1
  O  O15  1  0.63723450  0.93176250  0.59155300  1
  O  O16  1  0.63723450  0.06823750  0.09155300  1
  O  O17  1  0.36720250  0.93735950  0.89111300  1
  O  O18  1  0.61801400  0.16799700  0.58098300  1
  O  O19  1  0.36720250  0.06264050  0.39111300  1
  O  O20  1  0.63320150  0.30613950  0.14211300  1
  O  O21  1  0.36833450  0.30475150  0.36360800  1
  O  O22  1  0.13320150  0.19386050  0.64211300  1
  O  O23  1  0.11801400  0.33200300  0.08098300  1
  O  O24  1  0.86833450  0.19524850  0.86360800  1
  O  O25  1  0.13723450  0.43176250  0.59155300  1
  O  O26  1  0.13723450  0.56823750  0.09155300  1
  O  O27  1  0.86720250  0.43735950  0.89111300  1
  O  O28  1  0.11801400  0.66799700  0.58098300  1
  O  O29  1  0.86720250  0.56264050  0.39111300  1
  O  O30  1  0.13320150  0.80613950  0.14211300  1
  O  O31  1  0.86833450  0.80475150  0.36360800  1
  F  F32  1  0.85437150  0.95810350  0.95971000  1
  F  F33  1  0.85437150  0.04189650  0.45971000  1
  F  F34  1  0.39164650  0.82246150  0.42126900  1
  F  F35  1  0.14055000  0.95391000  0.54542700  1
  F  F36  1  0.39164650  0.17753850  0.92126900  1
  F  F37  1  0.14055000  0.04609000  0.04542700  1
  F  F38  1  0.35437150  0.45810350  0.95971000  1
  F  F39  1  0.35437150  0.54189650  0.45971000  1
  F  F40  1  0.89164650  0.32246150  0.42126900  1
  F  F41  1  0.64055000  0.45391000  0.54542700  1
  F  F42  1  0.89164650  0.67753850  0.92126900  1
  F  F43  1  0.64055000  0.54609000  0.04542700  1
