# generated using pymatgen
data_Mn5Co3O16
_symmetry_space_group_name_H-M   'P 1'
_cell_length_a   9.81755508
_cell_length_b   5.69631747
_cell_length_c   8.78202444
_cell_angle_alpha   90.00000000
_cell_angle_beta   90.80282219
_cell_angle_gamma   90.00000000
_symmetry_Int_Tables_number   1
_chemical_formula_structural   Mn5Co3O16
_chemical_formula_sum   'Mn10 Co6 O32'
_cell_volume   491.07693745
_cell_formula_units_Z   2
loop_
 _symmetry_equiv_pos_site_id
 _symmetry_equiv_pos_as_xyz
  1  'x, y, z'
loop_
 _atom_site_type_symbol
 _atom_site_label
 _atom_site_symmetry_multiplicity
 _atom_site_fract_x
 _atom_site_fract_y
 _atom_site_fract_z
 _atom_site_occupancy
  Mn  Mn0  1  0.66664250  0.00000000  0.48451800  1
  Mn  Mn1  1  0.83172850  0.00000000  0.21282600  1
  Mn  Mn2  1  0.33279000  0.00000000  0.98621200  1
  Mn  Mn3  1  0.41567800  0.75112500  0.71190700  1
  Mn  Mn4  1  0.41567800  0.24887500  0.71190700  1
  Mn  Mn5  1  0.16664250  0.50000000  0.48451800  1
  Mn  Mn6  1  0.33172850  0.50000000  0.21282600  1
  Mn  Mn7  1  0.83279000  0.50000000  0.98621200  1
  Mn  Mn8  1  0.91567800  0.25112500  0.71190700  1
  Mn  Mn9  1  0.91567800  0.74887500  0.71190700  1
  Co  Co10  1  0.58296750  0.75117050  0.20760100  1
  Co  Co11  1  0.58296750  0.24882950  0.20760100  1
  Co  Co12  1  0.16645250  0.00000000  0.70652400  1
  Co  Co13  1  0.08296750  0.25117050  0.20760100  1
  Co  Co14  1  0.08296750  0.74882950  0.20760100  1
  Co  Co15  1  0.66645250  0.50000000  0.70652400  1
  O  O16  1  0.58508850  0.74468850  0.60326100  1
  O  O17  1  0.52130400  0.00000000  0.33313800  1
  O  O18  1  0.66453800  0.00000000  0.10005500  1
  O  O19  1  0.00291450  0.00000000  0.31728300  1
  O  O20  1  0.00192200  0.00000000  0.81939700  1
  O  O21  1  0.58508850  0.25531150  0.60326100  1
  O  O22  1  0.73724250  0.77727650  0.33925500  1
  O  O23  1  0.73724250  0.22272350  0.33925500  1
  O  O24  1  0.16424650  0.00000000  0.10766000  1
  O  O25  1  0.83466600  0.00000000  0.59812500  1
  O  O26  1  0.25660250  0.78342750  0.83882100  1
  O  O27  1  0.25660250  0.21657250  0.83882100  1
  O  O28  1  0.33267900  0.00000000  0.59930000  1
  O  O29  1  0.41993700  0.75042800  0.10301500  1
  O  O30  1  0.48129500  0.00000000  0.84314400  1
  O  O31  1  0.41993700  0.24957200  0.10301500  1
  O  O32  1  0.08508850  0.24468850  0.60326100  1
  O  O33  1  0.02130400  0.50000000  0.33313800  1
  O  O34  1  0.16453800  0.50000000  0.10005500  1
  O  O35  1  0.50291450  0.50000000  0.31728300  1
  O  O36  1  0.50192200  0.50000000  0.81939700  1
  O  O37  1  0.08508850  0.75531150  0.60326100  1
  O  O38  1  0.23724250  0.27727650  0.33925500  1
  O  O39  1  0.23724250  0.72272350  0.33925500  1
  O  O40  1  0.66424650  0.50000000  0.10766000  1
  O  O41  1  0.33466600  0.50000000  0.59812500  1
  O  O42  1  0.75660250  0.28342750  0.83882100  1
  O  O43  1  0.75660250  0.71657250  0.83882100  1
  O  O44  1  0.83267900  0.50000000  0.59930000  1
  O  O45  1  0.91993700  0.25042800  0.10301500  1
  O  O46  1  0.98129500  0.50000000  0.84314400  1
  O  O47  1  0.91993700  0.74957200  0.10301500  1
