# generated using pymatgen
data_Li32Mn5Cr11O48
_symmetry_space_group_name_H-M   'P 1'
_cell_length_a   5.04152200
_cell_length_b   8.67320200
_cell_length_c   38.43013121
_cell_angle_alpha   90.00000000
_cell_angle_beta   91.96529290
_cell_angle_gamma   90.00000000
_symmetry_Int_Tables_number   1
_chemical_formula_structural   Li32Mn5Cr11O48
_chemical_formula_sum   'Li64 Mn10 Cr22 O96'
_cell_volume   1679.41280875
_cell_formula_units_Z   2
loop_
 _symmetry_equiv_pos_site_id
 _symmetry_equiv_pos_as_xyz
  1  'x, y, z'
loop_
 _atom_site_type_symbol
 _atom_site_label
 _atom_site_symmetry_multiplicity
 _atom_site_fract_x
 _atom_site_fract_y
 _atom_site_fract_z
 _atom_site_occupancy
  Li  Li0  1  0.81563900  0.90267400  0.93757600  1
  Li  Li1  1  0.56176450  0.56263950  0.18741900  1
  Li  Li2  1  0.50000000  0.56212500  0.00000000  1
  Li  Li3  1  0.43823550  0.56263950  0.81258100  1
  Li  Li4  1  0.87337550  0.06470550  0.62494000  1
  Li  Li5  1  0.81172100  0.06270800  0.43753000  1
  Li  Li6  1  0.75101200  0.06269500  0.24997500  1
  Li  Li7  1  0.68940150  0.72375850  0.06258000  1
  Li  Li8  1  0.68811650  0.05983650  0.06247700  1
  Li  Li9  1  0.55696850  0.72293750  0.68732600  1
  Li  Li10  1  0.44303150  0.72293750  0.31267400  1
  Li  Li11  1  0.62574050  0.06447850  0.87499400  1
  Li  Li12  1  0.56302450  0.06252050  0.68736600  1
  Li  Li13  1  0.31059850  0.72375850  0.93742000  1
  Li  Li14  1  0.69119650  0.22132450  0.56261700  1
  Li  Li15  1  0.68292200  0.90260300  0.56237200  1
  Li  Li16  1  0.56539900  0.90117000  0.18763700  1
  Li  Li17  1  0.55961600  0.22355000  0.18734000  1
  Li  Li18  1  0.44038400  0.22355000  0.81266000  1
  Li  Li19  1  0.43460100  0.90117000  0.81236300  1
  Li  Li20  1  0.31707800  0.90260300  0.43762800  1
  Li  Li21  1  0.50000000  0.06248600  0.50000000  1
  Li  Li22  1  0.18436100  0.90267400  0.06242400  1
  Li  Li23  1  0.56801550  0.40124250  0.68752200  1
  Li  Li24  1  0.43697550  0.06252050  0.31263400  1
  Li  Li25  1  0.43198450  0.40124250  0.31247800  1
  Li  Li26  1  0.37425950  0.06447850  0.12500600  1
  Li  Li27  1  0.31188350  0.05983650  0.93752300  1
  Li  Li28  1  0.24898800  0.06269500  0.75002500  1
  Li  Li29  1  0.18827900  0.06270800  0.56247000  1
  Li  Li30  1  0.12662450  0.06470550  0.37506000  1
  Li  Li31  1  0.30880350  0.22132450  0.43738300  1
  Li  Li32  1  0.31563900  0.40267400  0.93757600  1
  Li  Li33  1  0.06176450  0.06263950  0.18741900  1
  Li  Li34  1  0.00000000  0.06212500  0.00000000  1
  Li  Li35  1  0.93823550  0.06263950  0.81258100  1
  Li  Li36  1  0.37337550  0.56470550  0.62494000  1
  Li  Li37  1  0.31172100  0.56270800  0.43753000  1
  Li  Li38  1  0.25101200  0.56269500  0.24997500  1
  Li  Li39  1  0.18940150  0.22375850  0.06258000  1
  Li  Li40  1  0.18811650  0.55983650  0.06247700  1
  Li  Li41  1  0.05696850  0.22293750  0.68732600  1
  Li  Li42  1  0.94303150  0.22293750  0.31267400  1
  Li  Li43  1  0.12574050  0.56447850  0.87499400  1
  Li  Li44  1  0.06302450  0.56252050  0.68736600  1
  Li  Li45  1  0.81059850  0.22375850  0.93742000  1
  Li  Li46  1  0.19119650  0.72132450  0.56261700  1
  Li  Li47  1  0.18292200  0.40260300  0.56237200  1
  Li  Li48  1  0.06539900  0.40117000  0.18763700  1
  Li  Li49  1  0.05961600  0.72355000  0.18734000  1
  Li  Li50  1  0.94038400  0.72355000  0.81266000  1
  Li  Li51  1  0.93460100  0.40117000  0.81236300  1
  Li  Li52  1  0.81707800  0.40260300  0.43762800  1
  Li  Li53  1  0.00000000  0.56248600  0.50000000  1
  Li  Li54  1  0.68436100  0.40267400  0.06242400  1
  Li  Li55  1  0.06801550  0.90124250  0.68752200  1
  Li  Li56  1  0.93697550  0.56252050  0.31263400  1
  Li  Li57  1  0.93198450  0.90124250  0.31247800  1
  Li  Li58  1  0.87425950  0.56447850  0.12500600  1
  Li  Li59  1  0.81188350  0.55983650  0.93752300  1
  Li  Li60  1  0.74898800  0.56269500  0.75002500  1
  Li  Li61  1  0.68827900  0.56270800  0.56247000  1
  Li  Li62  1  0.62662450  0.56470550  0.37506000  1
  Li  Li63  1  0.80880350  0.72132450  0.43738300  1
  Mn  Mn64  1  0.87494200  0.89448900  0.12509100  1
  Mn  Mn65  1  0.62566050  0.89511350  0.37514000  1
  Mn  Mn66  1  0.50000000  0.89556200  0.00000000  1
  Mn  Mn67  1  0.37433950  0.89511350  0.62486000  1
  Mn  Mn68  1  0.12505800  0.89448900  0.87490900  1
  Mn  Mn69  1  0.37494200  0.39448900  0.12509100  1
  Mn  Mn70  1  0.12566050  0.39511350  0.37514000  1
  Mn  Mn71  1  0.00000000  0.39556200  0.00000000  1
  Mn  Mn72  1  0.87433950  0.39511350  0.62486000  1
  Mn  Mn73  1  0.62505800  0.39448900  0.87490900  1
  Cr  Cr74  1  0.75544900  0.89709200  0.75006300  1
  Cr  Cr75  1  0.62511850  0.73254350  0.87495200  1
  Cr  Cr76  1  0.50000000  0.73298200  0.50000000  1
  Cr  Cr77  1  0.37488150  0.73254350  0.12504800  1
  Cr  Cr78  1  0.74426200  0.22848000  0.74975300  1
  Cr  Cr79  1  0.62698350  0.23276150  0.37502500  1
  Cr  Cr80  1  0.50000000  0.22945200  0.00000000  1
  Cr  Cr81  1  0.24455100  0.89709200  0.24993700  1
  Cr  Cr82  1  0.50000000  0.39140300  0.50000000  1
  Cr  Cr83  1  0.37301650  0.23276150  0.62497500  1
  Cr  Cr84  1  0.25573800  0.22848000  0.25024700  1
  Cr  Cr85  1  0.25544900  0.39709200  0.75006300  1
  Cr  Cr86  1  0.12511850  0.23254350  0.87495200  1
  Cr  Cr87  1  0.00000000  0.23298200  0.50000000  1
  Cr  Cr88  1  0.87488150  0.23254350  0.12504800  1
  Cr  Cr89  1  0.24426200  0.72848000  0.74975300  1
  Cr  Cr90  1  0.12698350  0.73276150  0.37502500  1
  Cr  Cr91  1  0.00000000  0.72945200  0.00000000  1
  Cr  Cr92  1  0.74455100  0.39709200  0.24993700  1
  Cr  Cr93  1  0.00000000  0.89140300  0.50000000  1
  Cr  Cr94  1  0.87301650  0.73276150  0.62497500  1
  Cr  Cr95  1  0.75573800  0.72848000  0.25024700  1
  O  O96  1  0.79379350  0.88232350  0.84702000  1
  O  O97  1  0.82788800  0.88499400  0.02807300  1
  O  O98  1  0.49194700  0.56235200  0.90325000  1
  O  O99  1  0.86733300  0.06223300  0.52845800  1
  O  O100  1  0.50805300  0.56235200  0.09675000  1
  O  O101  1  0.88422750  0.05722850  0.72099300  1
  O  O102  1  0.75502300  0.06288500  0.34668200  1
  O  O103  1  0.74137900  0.06252700  0.15337700  1
  O  O104  1  0.61732300  0.06805800  0.77877000  1
  O  O105  1  0.67056400  0.74080700  0.97193300  1
  O  O106  1  0.63461900  0.06197500  0.97129300  1
  O  O107  1  0.54090450  0.74171450  0.59666300  1
  O  O108  1  0.42051550  0.74045150  0.22225900  1
  O  O109  1  0.71107950  0.74236850  0.15355800  1
  O  O110  1  0.57948450  0.74045150  0.77774100  1
  O  O111  1  0.45909550  0.74171450  0.40333700  1
  O  O112  1  0.66272900  0.88060300  0.47170900  1
  O  O113  1  0.70331850  0.88284150  0.65281200  1
  O  O114  1  0.57816200  0.88345300  0.27784700  1
  O  O115  1  0.28892050  0.74236850  0.84644200  1
  O  O116  1  0.66267100  0.24406700  0.47163200  1
  O  O117  1  0.32943600  0.74080700  0.02806700  1
  O  O118  1  0.71013750  0.24185450  0.65333600  1
  O  O119  1  0.57011450  0.23830550  0.27833200  1
  O  O120  1  0.54388800  0.88224500  0.09719700  1
  O  O121  1  0.42183800  0.88345300  0.72215300  1
  O  O122  1  0.29668150  0.88284150  0.34718800  1
  O  O123  1  0.45611200  0.88224500  0.90280300  1
  O  O124  1  0.33727100  0.88060300  0.52829100  1
  O  O125  1  0.53867000  0.24228400  0.09655400  1
  O  O126  1  0.42988550  0.23830550  0.72166800  1
  O  O127  1  0.46133000  0.24228400  0.90344600  1
  O  O128  1  0.17211200  0.88499400  0.97192700  1
  O  O129  1  0.54633500  0.38017900  0.59701000  1
  O  O130  1  0.43063150  0.38675050  0.22169200  1
  O  O131  1  0.20620650  0.88232350  0.15298000  1
  O  O132  1  0.56936850  0.38675050  0.77830800  1
  O  O133  1  0.49135800  0.06117400  0.40365600  1
  O  O134  1  0.45366500  0.38017900  0.40299000  1
  O  O135  1  0.50864200  0.06117400  0.59634400  1
  O  O136  1  0.38267700  0.06805800  0.22123000  1
  O  O137  1  0.36538100  0.06197500  0.02870700  1
  O  O138  1  0.24497700  0.06288500  0.65331800  1
  O  O139  1  0.11577250  0.05722850  0.27900700  1
  O  O140  1  0.25862100  0.06252700  0.84662300  1
  O  O141  1  0.13266700  0.06223300  0.47154200  1
  O  O142  1  0.28986250  0.24185450  0.34666400  1
  O  O143  1  0.33732900  0.24406700  0.52836800  1
  O  O144  1  0.29379350  0.38232350  0.84702000  1
  O  O145  1  0.32788800  0.38499400  0.02807300  1
  O  O146  1  0.99194700  0.06235200  0.90325000  1
  O  O147  1  0.36733300  0.56223300  0.52845800  1
  O  O148  1  0.00805300  0.06235200  0.09675000  1
  O  O149  1  0.38422750  0.55722850  0.72099300  1
  O  O150  1  0.25502300  0.56288500  0.34668200  1
  O  O151  1  0.24137900  0.56252700  0.15337700  1
  O  O152  1  0.11732300  0.56805800  0.77877000  1
  O  O153  1  0.17056400  0.24080700  0.97193300  1
  O  O154  1  0.13461900  0.56197500  0.97129300  1
  O  O155  1  0.04090450  0.24171450  0.59666300  1
  O  O156  1  0.92051550  0.24045150  0.22225900  1
  O  O157  1  0.21107950  0.24236850  0.15355800  1
  O  O158  1  0.07948450  0.24045150  0.77774100  1
  O  O159  1  0.95909550  0.24171450  0.40333700  1
  O  O160  1  0.16272900  0.38060300  0.47170900  1
  O  O161  1  0.20331850  0.38284150  0.65281200  1
  O  O162  1  0.07816200  0.38345300  0.27784700  1
  O  O163  1  0.78892050  0.24236850  0.84644200  1
  O  O164  1  0.16267100  0.74406700  0.47163200  1
  O  O165  1  0.82943600  0.24080700  0.02806700  1
  O  O166  1  0.21013750  0.74185450  0.65333600  1
  O  O167  1  0.07011450  0.73830550  0.27833200  1
  O  O168  1  0.04388800  0.38224500  0.09719700  1
  O  O169  1  0.92183800  0.38345300  0.72215300  1
  O  O170  1  0.79668150  0.38284150  0.34718800  1
  O  O171  1  0.95611200  0.38224500  0.90280300  1
  O  O172  1  0.83727100  0.38060300  0.52829100  1
  O  O173  1  0.03867000  0.74228400  0.09655400  1
  O  O174  1  0.92988550  0.73830550  0.72166800  1
  O  O175  1  0.96133000  0.74228400  0.90344600  1
  O  O176  1  0.67211200  0.38499400  0.97192700  1
  O  O177  1  0.04633500  0.88017900  0.59701000  1
  O  O178  1  0.93063150  0.88675050  0.22169200  1
  O  O179  1  0.70620650  0.38232350  0.15298000  1
  O  O180  1  0.06936850  0.88675050  0.77830800  1
  O  O181  1  0.99135800  0.56117400  0.40365600  1
  O  O182  1  0.95366500  0.88017900  0.40299000  1
  O  O183  1  0.00864200  0.56117400  0.59634400  1
  O  O184  1  0.88267700  0.56805800  0.22123000  1
  O  O185  1  0.86538100  0.56197500  0.02870700  1
  O  O186  1  0.74497700  0.56288500  0.65331800  1
  O  O187  1  0.61577250  0.55722850  0.27900700  1
  O  O188  1  0.75862100  0.56252700  0.84662300  1
  O  O189  1  0.63266700  0.56223300  0.47154200  1
  O  O190  1  0.78986250  0.74185450  0.34666400  1
  O  O191  1  0.83732900  0.74406700  0.52836800  1
