# generated using pymatgen
data_Li3Cr4FeO8
_symmetry_space_group_name_H-M   'P 1'
_cell_length_a   10.62227000
_cell_length_b   5.93027400
_cell_length_c   5.85200100
_cell_angle_alpha   90.00000000
_cell_angle_beta   122.55152501
_cell_angle_gamma   90.00000000
_symmetry_Int_Tables_number   1
_chemical_formula_structural   Li3Cr4FeO8
_chemical_formula_sum   'Li6 Cr8 Fe2 O16'
_cell_volume   310.72530504
_cell_formula_units_Z   2
loop_
 _symmetry_equiv_pos_site_id
 _symmetry_equiv_pos_as_xyz
  1  'x, y, z'
loop_
 _atom_site_type_symbol
 _atom_site_label
 _atom_site_symmetry_multiplicity
 _atom_site_fract_x
 _atom_site_fract_y
 _atom_site_fract_z
 _atom_site_occupancy
  Li  Li0  1  0.25000000  0.75000000  0.50000000  1
  Li  Li1  1  0.00000000  0.00000000  0.50000000  1
  Li  Li2  1  0.25000000  0.25000000  0.50000000  1
  Li  Li3  1  0.75000000  0.25000000  0.50000000  1
  Li  Li4  1  0.50000000  0.50000000  0.50000000  1
  Li  Li5  1  0.75000000  0.75000000  0.50000000  1
  Cr  Cr6  1  0.00000000  0.50000000  0.50000000  1
  Cr  Cr7  1  0.00000000  0.00000000  0.00000000  1
  Cr  Cr8  1  0.25000000  0.75000000  0.00000000  1
  Cr  Cr9  1  0.25000000  0.25000000  0.00000000  1
  Cr  Cr10  1  0.50000000  0.00000000  0.50000000  1
  Cr  Cr11  1  0.50000000  0.50000000  0.00000000  1
  Cr  Cr12  1  0.75000000  0.25000000  0.00000000  1
  Cr  Cr13  1  0.75000000  0.75000000  0.00000000  1
  Fe  Fe14  1  0.00000000  0.50000000  0.00000000  1
  Fe  Fe15  1  0.50000000  0.00000000  0.00000000  1
  O  O16  1  0.25397800  0.00000000  0.76898600  1
  O  O17  1  0.01797900  0.24329500  0.76966000  1
  O  O18  1  0.01797900  0.75670500  0.76966000  1
  O  O19  1  0.26909100  0.50000000  0.78021000  1
  O  O20  1  0.23090900  0.00000000  0.21979000  1
  O  O21  1  0.48202100  0.74329500  0.23034000  1
  O  O22  1  0.48202100  0.25670500  0.23034000  1
  O  O23  1  0.24602200  0.50000000  0.23101400  1
  O  O24  1  0.75397800  0.50000000  0.76898600  1
  O  O25  1  0.51797900  0.74329500  0.76966000  1
  O  O26  1  0.51797900  0.25670500  0.76966000  1
  O  O27  1  0.76909100  0.00000000  0.78021000  1
  O  O28  1  0.73090900  0.50000000  0.21979000  1
  O  O29  1  0.98202100  0.24329500  0.23034000  1
  O  O30  1  0.98202100  0.75670500  0.23034000  1
  O  O31  1  0.74602200  0.00000000  0.23101400  1
