# generated using pymatgen
data_Li5MnCr3O8
_symmetry_space_group_name_H-M   'P 1'
_cell_length_a   6.01623731
_cell_length_b   6.01623731
_cell_length_c   15.24008514
_cell_angle_alpha   90.00000000
_cell_angle_beta   90.00000000
_cell_angle_gamma   120.00000000
_symmetry_Int_Tables_number   1
_chemical_formula_structural   Li5MnCr3O8
_chemical_formula_sum   'Li15 Mn3 Cr9 O24'
_cell_volume   477.71397057
_cell_formula_units_Z   3
loop_
 _symmetry_equiv_pos_site_id
 _symmetry_equiv_pos_as_xyz
  1  'x, y, z'
loop_
 _atom_site_type_symbol
 _atom_site_label
 _atom_site_symmetry_multiplicity
 _atom_site_fract_x
 _atom_site_fract_y
 _atom_site_fract_z
 _atom_site_occupancy
  Li  Li0  1  0.66666667  0.33333333  0.39797250  1
  Li  Li1  1  0.33333333  0.66666667  0.60202750  1
  Li  Li2  1  0.50000000  0.50000000  0.50000000  1
  Li  Li3  1  0.00000000  0.50000000  0.50000000  1
  Li  Li4  1  0.50000000  0.00000000  0.50000000  1
  Li  Li5  1  0.33333333  0.66666667  0.73130583  1
  Li  Li6  1  0.00000000  0.00000000  0.93536083  1
  Li  Li7  1  0.16666667  0.83333333  0.83333333  1
  Li  Li8  1  0.66666667  0.83333333  0.83333333  1
  Li  Li9  1  0.16666667  0.33333333  0.83333333  1
  Li  Li10  1  0.00000000  0.00000000  0.06463917  1
  Li  Li11  1  0.66666667  0.33333333  0.26869417  1
  Li  Li12  1  0.83333333  0.16666667  0.16666667  1
  Li  Li13  1  0.33333333  0.16666667  0.16666667  1
  Li  Li14  1  0.83333333  0.66666667  0.16666667  1
  Mn  Mn15  1  0.00000000  0.00000000  0.50000000  1
  Mn  Mn16  1  0.66666667  0.33333333  0.83333333  1
  Mn  Mn17  1  0.33333333  0.66666667  0.16666667  1
  Cr  Cr18  1  0.83333333  0.66666667  0.66666667  1
  Cr  Cr19  1  0.33333333  0.16666667  0.66666667  1
  Cr  Cr20  1  0.83333333  0.16666667  0.66666667  1
  Cr  Cr21  1  0.50000000  0.00000000  0.00000000  1
  Cr  Cr22  1  0.00000000  0.50000000  0.00000000  1
  Cr  Cr23  1  0.50000000  0.50000000  0.00000000  1
  Cr  Cr24  1  0.16666667  0.33333333  0.33333333  1
  Cr  Cr25  1  0.66666667  0.83333333  0.33333333  1
  Cr  Cr26  1  0.16666667  0.83333333  0.33333333  1
  O  O27  1  0.66666667  0.33333333  0.59197150  1
  O  O28  1  0.33333333  0.66666667  0.40802850  1
  O  O29  1  0.31972467  0.15986233  0.40937583  1
  O  O30  1  0.84013767  0.68027533  0.40937583  1
  O  O31  1  0.84013767  0.15986233  0.40937583  1
  O  O32  1  0.15986233  0.84013767  0.59062417  1
  O  O33  1  0.15986233  0.31972467  0.59062417  1
  O  O34  1  0.68027533  0.84013767  0.59062417  1
  O  O35  1  0.33333333  0.66666667  0.92530483  1
  O  O36  1  0.00000000  0.00000000  0.74136183  1
  O  O37  1  0.98639133  0.49319567  0.74270917  1
  O  O38  1  0.50680433  0.01360867  0.74270917  1
  O  O39  1  0.50680433  0.49319567  0.74270917  1
  O  O40  1  0.82652900  0.17347100  0.92395750  1
  O  O41  1  0.82652900  0.65305800  0.92395750  1
  O  O42  1  0.34694200  0.17347100  0.92395750  1
  O  O43  1  0.00000000  0.00000000  0.25863817  1
  O  O44  1  0.66666667  0.33333333  0.07469517  1
  O  O45  1  0.65305800  0.82652900  0.07604250  1
  O  O46  1  0.17347100  0.34694200  0.07604250  1
  O  O47  1  0.17347100  0.82652900  0.07604250  1
  O  O48  1  0.49319567  0.50680433  0.25729083  1
  O  O49  1  0.49319567  0.98639133  0.25729083  1
  O  O50  1  0.01360867  0.50680433  0.25729083  1
