# generated using pymatgen
data_TiPO4
_symmetry_space_group_name_H-M   'P 1'
_cell_length_a   8.72632614
_cell_length_b   8.72632614
_cell_length_c   20.56506483
_cell_angle_alpha   90.00000000
_cell_angle_beta   90.00000000
_cell_angle_gamma   120.00000000
_symmetry_Int_Tables_number   1
_chemical_formula_structural   TiPO4
_chemical_formula_sum   'Ti18 P18 O72'
_cell_volume   1356.19954892
_cell_formula_units_Z   18
loop_
 _symmetry_equiv_pos_site_id
 _symmetry_equiv_pos_as_xyz
  1  'x, y, z'
loop_
 _atom_site_type_symbol
 _atom_site_label
 _atom_site_symmetry_multiplicity
 _atom_site_fract_x
 _atom_site_fract_y
 _atom_site_fract_z
 _atom_site_occupancy
  Ti  Ti0  1  0.00000000  0.00000000  0.00000000  1
  Ti  Ti1  1  0.33333333  0.66666667  0.16666667  1
  Ti  Ti2  1  0.33333333  0.66666667  0.52409167  1
  Ti  Ti3  1  0.33333333  0.66666667  0.30924167  1
  Ti  Ti4  1  0.33333333  0.66666667  0.02409167  1
  Ti  Ti5  1  0.33333333  0.66666667  0.80924167  1
  Ti  Ti6  1  0.66666667  0.33333333  0.33333333  1
  Ti  Ti7  1  0.00000000  0.00000000  0.50000000  1
  Ti  Ti8  1  0.00000000  0.00000000  0.85742500  1
  Ti  Ti9  1  1.00000000  0.00000000  0.64257500  1
  Ti  Ti10  1  0.00000000  0.00000000  0.35742500  1
  Ti  Ti11  1  0.00000000  0.00000000  0.14257500  1
  Ti  Ti12  1  0.33333333  0.66666667  0.66666667  1
  Ti  Ti13  1  0.66666667  0.33333333  0.83333333  1
  Ti  Ti14  1  0.66666667  0.33333333  0.19075833  1
  Ti  Ti15  1  0.66666667  0.33333333  0.97590833  1
  Ti  Ti16  1  0.66666667  0.33333333  0.69075833  1
  Ti  Ti17  1  0.66666667  0.33333333  0.47590833  1
  P  P18  1  0.66666667  0.03969833  0.08333333  1
  P  P19  1  0.37303167  0.33333333  0.08333333  1
  P  P20  1  0.96030167  0.62696833  0.08333333  1
  P  P21  1  0.70636500  0.70636500  0.25000000  1
  P  P22  1  0.29363500  0.00000000  0.25000000  1
  P  P23  1  0.00000000  0.29363500  0.25000000  1
  P  P24  1  0.33333333  0.37303167  0.41666667  1
  P  P25  1  0.03969833  0.66666667  0.41666667  1
  P  P26  1  0.62696833  0.96030167  0.41666667  1
  P  P27  1  0.37303167  0.03969833  0.58333333  1
  P  P28  1  0.96030167  0.33333333  0.58333333  1
  P  P29  1  0.66666667  0.62696833  0.58333333  1
  P  P30  1  0.00000000  0.70636500  0.75000000  1
  P  P31  1  0.70636500  0.00000000  0.75000000  1
  P  P32  1  0.29363500  0.29363500  0.75000000  1
  P  P33  1  0.03969833  0.37303167  0.91666667  1
  P  P34  1  0.62696833  0.66666667  0.91666667  1
  P  P35  1  0.33333333  0.96030167  0.91666667  1
  O  O36  1  0.53290533  0.85702367  0.35536767  1
  O  O37  1  0.32411833  0.46709467  0.35536767  1
  O  O38  1  0.68184600  0.51690700  0.25928500  1
  O  O39  1  0.14297633  0.67588167  0.35536767  1
  O  O40  1  0.80964300  0.80042800  0.18870100  1
  O  O41  1  0.51690700  0.68184600  0.24071500  1
  O  O42  1  0.48309300  0.16493900  0.25928500  1
  O  O43  1  0.31815400  0.83506100  0.24071500  1
  O  O44  1  0.67588167  0.14297633  0.14463233  1
  O  O45  1  0.16493900  0.48309300  0.24071500  1
  O  O46  1  0.83160567  0.01517933  0.07404833  1
  O  O47  1  0.46709467  0.32411833  0.14463233  1
  O  O48  1  0.19957200  0.00921500  0.18870100  1
  O  O49  1  0.83506100  0.31815400  0.25928500  1
  O  O50  1  0.50172767  0.85024033  0.09261833  1
  O  O51  1  0.99078500  0.19035700  0.18870100  1
  O  O52  1  0.34851267  0.49827233  0.09261833  1
  O  O53  1  0.18357367  0.16839433  0.07404833  1
  O  O54  1  0.14975967  0.65148733  0.09261833  1
  O  O55  1  0.85702367  0.53290533  0.14463233  1
  O  O56  1  0.52369033  0.65745167  0.97796567  1
  O  O57  1  0.98482067  0.81642633  0.07404833  1
  O  O58  1  0.34254833  0.86623867  0.97796567  1
  O  O59  1  0.13376133  0.47630967  0.97796567  1
  O  O60  1  0.19957200  0.19035700  0.68870100  1
  O  O61  1  0.99078500  0.80042800  0.68870100  1
  O  O62  1  0.34851267  0.85024033  0.59261833  1
  O  O63  1  0.80964300  0.00921500  0.68870100  1
  O  O64  1  0.47630967  0.13376133  0.52203433  1
  O  O65  1  0.18357367  0.01517933  0.57404833  1
  O  O66  1  0.14975967  0.49827233  0.59261833  1
  O  O67  1  0.98482067  0.16839433  0.57404833  1
  O  O68  1  0.34254833  0.47630967  0.47796567  1
  O  O69  1  0.83160567  0.81642633  0.57404833  1
  O  O70  1  0.49827233  0.34851267  0.40738167  1
  O  O71  1  0.13376133  0.65745167  0.47796567  1
  O  O72  1  0.86623867  0.34254833  0.52203433  1
  O  O73  1  0.50172767  0.65148733  0.59261833  1
  O  O74  1  0.16839433  0.18357367  0.42595167  1
  O  O75  1  0.65745167  0.52369033  0.52203433  1
  O  O76  1  0.01517933  0.83160567  0.42595167  1
  O  O77  1  0.85024033  0.50172767  0.40738167  1
  O  O78  1  0.81642633  0.98482067  0.42595167  1
  O  O79  1  0.52369033  0.86623867  0.47796567  1
  O  O80  1  0.19035700  0.99078500  0.31129900  1
  O  O81  1  0.65148733  0.14975967  0.40738167  1
  O  O82  1  0.00921500  0.19957200  0.31129900  1
  O  O83  1  0.80042800  0.80964300  0.31129900  1
  O  O84  1  0.86623867  0.52369033  0.02203433  1
  O  O85  1  0.65745167  0.13376133  0.02203433  1
  O  O86  1  0.01517933  0.18357367  0.92595167  1
  O  O87  1  0.47630967  0.34254833  0.02203433  1
  O  O88  1  0.14297633  0.46709467  0.85536767  1
  O  O89  1  0.85024033  0.34851267  0.90738167  1
  O  O90  1  0.81642633  0.83160567  0.92595167  1
  O  O91  1  0.65148733  0.50172767  0.90738167  1
  O  O92  1  0.00921500  0.80964300  0.81129900  1
  O  O93  1  0.49827233  0.14975967  0.90738167  1
  O  O94  1  0.16493900  0.68184600  0.74071500  1
  O  O95  1  0.80042800  0.99078500  0.81129900  1
  O  O96  1  0.53290533  0.67588167  0.85536767  1
  O  O97  1  0.16839433  0.98482067  0.92595167  1
  O  O98  1  0.83506100  0.51690700  0.75928500  1
  O  O99  1  0.32411833  0.85702367  0.85536767  1
  O  O100  1  0.68184600  0.16493900  0.75928500  1
  O  O101  1  0.51690700  0.83506100  0.74071500  1
  O  O102  1  0.48309300  0.31815400  0.75928500  1
  O  O103  1  0.19035700  0.19957200  0.81129900  1
  O  O104  1  0.85702367  0.32411833  0.64463233  1
  O  O105  1  0.31815400  0.48309300  0.74071500  1
  O  O106  1  0.67588167  0.53290533  0.64463233  1
  O  O107  1  0.46709467  0.14297633  0.64463233  1
