# generated using pymatgen
data_MnVP2(HO5)2
_symmetry_space_group_name_H-M   'P 1'
_cell_length_a   5.17905439
_cell_length_b   5.25567200
_cell_length_c   7.24504649
_cell_angle_alpha   105.77834406
_cell_angle_beta   108.45993559
_cell_angle_gamma   100.54559862
_symmetry_Int_Tables_number   1
_chemical_formula_structural   MnVP2(HO5)2
_chemical_formula_sum   'Mn1 V1 P2 H2 O10'
_cell_volume   172.00925322
_cell_formula_units_Z   1
loop_
 _symmetry_equiv_pos_site_id
 _symmetry_equiv_pos_as_xyz
  1  'x, y, z'
loop_
 _atom_site_type_symbol
 _atom_site_label
 _atom_site_symmetry_multiplicity
 _atom_site_fract_x
 _atom_site_fract_y
 _atom_site_fract_z
 _atom_site_occupancy
  Mn  Mn0  1  0.00000000  0.00000000  0.00000000  1
  V  V1  1  0.00000000  0.00000000  0.50000000  1
  P  P2  1  0.67556750  0.32924400  0.22568200  1
  P  P3  1  0.32443250  0.67075600  0.77431800  1
  H  H4  1  0.34494700  0.99471600  0.31677250  1
  H  H5  1  0.65505300  0.00528400  0.68322750  1
  O  O6  1  0.86611600  0.04277300  0.73027650  1
  O  O7  1  0.13388400  0.95722700  0.26972350  1
  O  O8  1  0.69366800  0.14596600  0.36423150  1
  O  O9  1  0.30633200  0.85403400  0.63576850  1
  O  O10  1  0.25480800  0.36479300  0.63621400  1
  O  O11  1  0.74519200  0.63520700  0.36378600  1
  O  O12  1  0.36767700  0.23757200  0.06299800  1
  O  O13  1  0.63232300  0.76242800  0.93700200  1
  O  O14  1  0.89173150  0.31499800  0.12039100  1
  O  O15  1  0.10826850  0.68500200  0.87960900  1
