# generated using pymatgen
data_Li4Fe(SiO3)3
_symmetry_space_group_name_H-M   'P 1'
_cell_length_a   7.48656600
_cell_length_b   10.14953400
_cell_length_c   10.09387331
_cell_angle_alpha   90.00000000
_cell_angle_beta   91.54957273
_cell_angle_gamma   90.00000000
_symmetry_Int_Tables_number   1
_chemical_formula_structural   Li4Fe(SiO3)3
_chemical_formula_sum   'Li16 Fe4 Si12 O36'
_cell_volume   766.70405496
_cell_formula_units_Z   4
loop_
 _symmetry_equiv_pos_site_id
 _symmetry_equiv_pos_as_xyz
  1  'x, y, z'
loop_
 _atom_site_type_symbol
 _atom_site_label
 _atom_site_symmetry_multiplicity
 _atom_site_fract_x
 _atom_site_fract_y
 _atom_site_fract_z
 _atom_site_occupancy
  Li  Li0  1  0.27743050  0.90764850  0.20900200  1
  Li  Li1  1  0.36452700  0.17507000  0.78834600  1
  Li  Li2  1  0.50000000  0.94534200  0.50000000  1
  Li  Li3  1  0.50000000  0.50837200  0.50000000  1
  Li  Li4  1  0.50000000  0.87473600  0.00000000  1
  Li  Li5  1  0.50000000  0.49951400  0.00000000  1
  Li  Li6  1  0.63547300  0.17507000  0.21165400  1
  Li  Li7  1  0.72256950  0.90764850  0.79099800  1
  Li  Li8  1  0.77743050  0.40764850  0.20900200  1
  Li  Li9  1  0.86452700  0.67507000  0.78834600  1
  Li  Li10  1  0.00000000  0.44534200  0.50000000  1
  Li  Li11  1  0.00000000  0.00837200  0.50000000  1
  Li  Li12  1  0.00000000  0.37473600  0.00000000  1
  Li  Li13  1  0.00000000  0.99951400  0.00000000  1
  Li  Li14  1  0.13547300  0.67507000  0.21165400  1
  Li  Li15  1  0.22256950  0.40764850  0.79099800  1
  Fe  Fe16  1  0.49232400  0.67607500  0.25081100  1
  Fe  Fe17  1  0.50767600  0.67607500  0.74918900  1
  Fe  Fe18  1  0.99232400  0.17607500  0.25081100  1
  Fe  Fe19  1  0.00767600  0.17607500  0.74918900  1
  Si  Si20  1  0.22737250  0.88896950  0.74737500  1
  Si  Si21  1  0.29749250  0.22302250  0.49557200  1
  Si  Si22  1  0.31001800  0.17999100  0.05165800  1
  Si  Si23  1  0.68998200  0.17999100  0.94834200  1
  Si  Si24  1  0.70250750  0.22302250  0.50442800  1
  Si  Si25  1  0.77262750  0.88896950  0.25262500  1
  Si  Si26  1  0.72737250  0.38896950  0.74737500  1
  Si  Si27  1  0.79749250  0.72302250  0.49557200  1
  Si  Si28  1  0.81001800  0.67999100  0.05165800  1
  Si  Si29  1  0.18998200  0.67999100  0.94834200  1
  Si  Si30  1  0.20250750  0.72302250  0.50442800  1
  Si  Si31  1  0.27262750  0.38896950  0.25262500  1
  O  O32  1  0.17338750  0.03279550  0.79660500  1
  O  O33  1  0.17458300  0.86786500  0.58609200  1
  O  O34  1  0.18357000  0.06934000  0.11603900  1
  O  O35  1  0.16194300  0.12896800  0.41330400  1
  O  O36  1  0.27632350  0.77345250  0.06243500  1
  O  O37  1  0.25586250  0.76710650  0.35665000  1
  O  O38  1  0.39363300  0.27461000  0.17615900  1
  O  O39  1  0.44096400  0.86912900  0.77199100  1
  O  O40  1  0.50000000  0.14575200  0.50000000  1
  O  O41  1  0.50000000  0.10653300  0.00000000  1
  O  O42  1  0.55903600  0.86912900  0.22800900  1
  O  O43  1  0.60636700  0.27461000  0.82384100  1
  O  O44  1  0.74413750  0.76710650  0.64335000  1
  O  O45  1  0.72367650  0.77345250  0.93756500  1
  O  O46  1  0.83805700  0.12896800  0.58669600  1
  O  O47  1  0.81643000  0.06934000  0.88396100  1
  O  O48  1  0.82541700  0.86786500  0.41390800  1
  O  O49  1  0.82661250  0.03279550  0.20339500  1
  O  O50  1  0.67338750  0.53279550  0.79660500  1
  O  O51  1  0.67458300  0.36786500  0.58609200  1
  O  O52  1  0.68357000  0.56934000  0.11603900  1
  O  O53  1  0.66194300  0.62896800  0.41330400  1
  O  O54  1  0.77632350  0.27345250  0.06243500  1
  O  O55  1  0.75586250  0.26710650  0.35665000  1
  O  O56  1  0.89363300  0.77461000  0.17615900  1
  O  O57  1  0.94096400  0.36912900  0.77199100  1
  O  O58  1  0.00000000  0.64575200  0.50000000  1
  O  O59  1  0.00000000  0.60653300  0.00000000  1
  O  O60  1  0.05903600  0.36912900  0.22800900  1
  O  O61  1  0.10636700  0.77461000  0.82384100  1
  O  O62  1  0.24413750  0.26710650  0.64335000  1
  O  O63  1  0.22367650  0.27345250  0.93756500  1
  O  O64  1  0.33805700  0.62896800  0.58669600  1
  O  O65  1  0.31643000  0.56934000  0.88396100  1
  O  O66  1  0.32541700  0.36786500  0.41390800  1
  O  O67  1  0.32661250  0.53279550  0.20339500  1
