# generated using pymatgen
data_LiVOF3
_symmetry_space_group_name_H-M   'P 1'
_cell_length_a   7.52770800
_cell_length_b   11.51556400
_cell_length_c   6.39179941
_cell_angle_alpha   90.00000000
_cell_angle_beta   90.91351914
_cell_angle_gamma   90.00000000
_symmetry_Int_Tables_number   1
_chemical_formula_structural   LiVOF3
_chemical_formula_sum   'Li8 V8 O8 F24'
_cell_volume   554.00784164
_cell_formula_units_Z   8
loop_
 _symmetry_equiv_pos_site_id
 _symmetry_equiv_pos_as_xyz
  1  'x, y, z'
loop_
 _atom_site_type_symbol
 _atom_site_label
 _atom_site_symmetry_multiplicity
 _atom_site_fract_x
 _atom_site_fract_y
 _atom_site_fract_z
 _atom_site_occupancy
  Li  Li0  1  0.19724950  0.04001050  0.72749900  1
  Li  Li1  1  0.50000000  0.30954700  0.50000000  1
  Li  Li2  1  0.50000000  0.77283600  0.00000000  1
  Li  Li3  1  0.80275050  0.04001050  0.27250100  1
  Li  Li4  1  0.69724950  0.54001050  0.72749900  1
  Li  Li5  1  0.00000000  0.80954700  0.50000000  1
  Li  Li6  1  0.00000000  0.27283600  0.00000000  1
  Li  Li7  1  0.30275050  0.54001050  0.27250100  1
  V  V8  1  0.50000000  0.15903800  0.00000000  1
  V  V9  1  0.74526450  0.94526050  0.76452800  1
  V  V10  1  0.25473550  0.94526050  0.23547200  1
  V  V11  1  0.50000000  0.78896400  0.50000000  1
  V  V12  1  0.00000000  0.65903800  0.00000000  1
  V  V13  1  0.24526450  0.44526050  0.76452800  1
  V  V14  1  0.75473550  0.44526050  0.23547200  1
  V  V15  1  0.00000000  0.28896400  0.50000000  1
  O  O16  1  0.31370650  0.05779550  0.03130100  1
  O  O17  1  0.68629350  0.05779550  0.96869900  1
  O  O18  1  0.72913100  0.83472500  0.54754500  1
  O  O19  1  0.27086900  0.83472500  0.45245500  1
  O  O20  1  0.81370650  0.55779550  0.03130100  1
  O  O21  1  0.18629350  0.55779550  0.96869900  1
  O  O22  1  0.22913100  0.33472500  0.54754500  1
  O  O23  1  0.77086900  0.33472500  0.45245500  1
  F  F24  1  0.49547950  0.44243950  0.73939100  1
  F  F25  1  0.48987700  0.19964600  0.72905700  1
  F  F26  1  0.48320200  0.90649600  0.75220600  1
  F  F27  1  0.50452050  0.44243950  0.26060900  1
  F  F28  1  0.76753050  0.81747450  0.96996400  1
  F  F29  1  0.51309850  0.68154450  0.72705900  1
  F  F30  1  0.48690150  0.68154450  0.27294100  1
  F  F31  1  0.72889800  0.05941700  0.54964600  1
  F  F32  1  0.23246950  0.81747450  0.03003600  1
  F  F33  1  0.51679800  0.90649600  0.24779400  1
  F  F34  1  0.27110200  0.05941700  0.45035400  1
  F  F35  1  0.51012300  0.19964600  0.27094300  1
  F  F36  1  0.99547950  0.94243950  0.73939100  1
  F  F37  1  0.98987700  0.69964600  0.72905700  1
  F  F38  1  0.98320200  0.40649600  0.75220600  1
  F  F39  1  0.00452050  0.94243950  0.26060900  1
  F  F40  1  0.26753050  0.31747450  0.96996400  1
  F  F41  1  0.01309850  0.18154450  0.72705900  1
  F  F42  1  0.98690150  0.18154450  0.27294100  1
  F  F43  1  0.22889800  0.55941700  0.54964600  1
  F  F44  1  0.73246950  0.31747450  0.03003600  1
  F  F45  1  0.01679800  0.40649600  0.24779400  1
  F  F46  1  0.77110200  0.55941700  0.45035400  1
  F  F47  1  0.01012300  0.69964600  0.27094300  1
