# generated using pymatgen
data_Li2Ni3SbO8
_symmetry_space_group_name_H-M   'P 1'
_cell_length_a   5.89399232
_cell_length_b   5.89399232
_cell_length_c   14.87764018
_cell_angle_alpha   90.00000000
_cell_angle_beta   90.00000000
_cell_angle_gamma   120.00000000
_symmetry_Int_Tables_number   1
_chemical_formula_structural   Li2Ni3SbO8
_chemical_formula_sum   'Li6 Ni9 Sb3 O24'
_cell_volume   447.59354476
_cell_formula_units_Z   3
loop_
 _symmetry_equiv_pos_site_id
 _symmetry_equiv_pos_as_xyz
  1  'x, y, z'
loop_
 _atom_site_type_symbol
 _atom_site_label
 _atom_site_symmetry_multiplicity
 _atom_site_fract_x
 _atom_site_fract_y
 _atom_site_fract_z
 _atom_site_occupancy
  Li  Li0  1  0.66666667  0.33333333  0.45961500  1
  Li  Li1  1  0.33333333  0.66666667  0.54038500  1
  Li  Li2  1  0.33333333  0.66666667  0.79294833  1
  Li  Li3  1  0.00000000  0.00000000  0.87371833  1
  Li  Li4  1  0.00000000  0.00000000  0.12628167  1
  Li  Li5  1  0.66666667  0.33333333  0.20705167  1
  Ni  Ni6  1  0.83333333  0.16666667  0.66666667  1
  Ni  Ni7  1  0.16666667  0.33333333  0.33333333  1
  Ni  Ni8  1  0.33333333  0.16666667  0.66666667  1
  Ni  Ni9  1  0.50000000  0.50000000  0.00000000  1
  Ni  Ni10  1  0.83333333  0.66666667  0.66666667  1
  Ni  Ni11  1  0.00000000  0.50000000  0.00000000  1
  Ni  Ni12  1  0.16666667  0.83333333  0.33333333  1
  Ni  Ni13  1  0.50000000  0.00000000  0.00000000  1
  Ni  Ni14  1  0.66666667  0.83333333  0.33333333  1
  Sb  Sb15  1  0.00000000  0.00000000  0.50000000  1
  Sb  Sb16  1  0.66666667  0.33333333  0.83333333  1
  Sb  Sb17  1  0.33333333  0.66666667  0.16666667  1
  O  O18  1  0.66666667  0.33333333  0.60362900  1
  O  O19  1  0.30692033  0.15346017  0.41511767  1
  O  O20  1  0.84653983  0.69307967  0.41511767  1
  O  O21  1  0.84653983  0.15346017  0.41511767  1
  O  O22  1  0.15346017  0.84653983  0.58488233  1
  O  O23  1  0.15346017  0.30692033  0.58488233  1
  O  O24  1  0.69307967  0.84653983  0.58488233  1
  O  O25  1  0.33333333  0.66666667  0.39637100  1
  O  O26  1  0.33333333  0.66666667  0.93696233  1
  O  O27  1  0.97358700  0.48679350  0.74845100  1
  O  O28  1  0.51320650  0.02641300  0.74845100  1
  O  O29  1  0.51320650  0.48679350  0.74845100  1
  O  O30  1  0.82012683  0.17987317  0.91821567  1
  O  O31  1  0.82012683  0.64025367  0.91821567  1
  O  O32  1  0.35974633  0.17987317  0.91821567  1
  O  O33  1  0.00000000  0.00000000  0.72970433  1
  O  O34  1  0.00000000  0.00000000  0.27029567  1
  O  O35  1  0.64025367  0.82012683  0.08178433  1
  O  O36  1  0.17987317  0.35974633  0.08178433  1
  O  O37  1  0.17987317  0.82012683  0.08178433  1
  O  O38  1  0.48679350  0.51320650  0.25154900  1
  O  O39  1  0.48679350  0.97358700  0.25154900  1
  O  O40  1  0.02641300  0.51320650  0.25154900  1
  O  O41  1  0.66666667  0.33333333  0.06303767  1
