# generated using pymatgen
data_V2Cu(PO4)3
_symmetry_space_group_name_H-M   'P 1'
_cell_length_a   8.60723178
_cell_length_b   8.60723178
_cell_length_c   21.15267693
_cell_angle_alpha   90.00000000
_cell_angle_beta   90.00000000
_cell_angle_gamma   120.00000000
_symmetry_Int_Tables_number   1
_chemical_formula_structural   V2Cu(PO4)3
_chemical_formula_sum   'V12 Cu6 P18 O72'
_cell_volume   1357.13472770
_cell_formula_units_Z   6
loop_
 _symmetry_equiv_pos_site_id
 _symmetry_equiv_pos_as_xyz
  1  'x, y, z'
loop_
 _atom_site_type_symbol
 _atom_site_label
 _atom_site_symmetry_multiplicity
 _atom_site_fract_x
 _atom_site_fract_y
 _atom_site_fract_z
 _atom_site_occupancy
  V  V0  1  0.66666667  0.33333333  0.19108133  1
  V  V1  1  0.33333333  0.66666667  0.30891867  1
  V  V2  1  0.33333333  0.66666667  0.02441467  1
  V  V3  1  0.00000000  0.00000000  0.14225200  1
  V  V4  1  0.33333333  0.66666667  0.52441467  1
  V  V5  1  0.00000000  0.00000000  0.64225200  1
  V  V6  1  0.00000000  0.00000000  0.35774800  1
  V  V7  1  0.66666667  0.33333333  0.47558533  1
  V  V8  1  0.00000000  0.00000000  0.85774800  1
  V  V9  1  0.66666667  0.33333333  0.97558533  1
  V  V10  1  0.66666667  0.33333333  0.69108133  1
  V  V11  1  0.33333333  0.66666667  0.80891867  1
  Cu  Cu12  1  0.00000000  0.00000000  0.00000000  1
  Cu  Cu13  1  0.33333333  0.66666667  0.16666667  1
  Cu  Cu14  1  0.66666667  0.33333333  0.33333333  1
  Cu  Cu15  1  0.00000000  0.00000000  0.50000000  1
  Cu  Cu16  1  0.33333333  0.66666667  0.66666667  1
  Cu  Cu17  1  0.66666667  0.33333333  0.83333333  1
  P  P18  1  0.28998900  0.28998900  0.25000000  1
  P  P19  1  0.00000000  0.71001100  0.25000000  1
  P  P20  1  0.71001100  0.00000000  0.25000000  1
  P  P21  1  0.95665567  0.33333333  0.08333333  1
  P  P22  1  0.66666667  0.62332233  0.08333333  1
  P  P23  1  0.37667767  0.04334433  0.08333333  1
  P  P24  1  0.95665567  0.62332233  0.58333333  1
  P  P25  1  0.66666667  0.04334433  0.58333333  1
  P  P26  1  0.37667767  0.33333333  0.58333333  1
  P  P27  1  0.62332233  0.66666667  0.41666667  1
  P  P28  1  0.33333333  0.95665567  0.41666667  1
  P  P29  1  0.04334433  0.37667767  0.41666667  1
  P  P30  1  0.62332233  0.95665567  0.91666667  1
  P  P31  1  0.33333333  0.37667767  0.91666667  1
  P  P32  1  0.04334433  0.66666667  0.91666667  1
  P  P33  1  0.28998900  0.00000000  0.75000000  1
  P  P34  1  0.00000000  0.28998900  0.75000000  1
  P  P35  1  0.71001100  0.71001100  0.75000000  1
  O  O36  1  0.47284267  0.14741333  0.02314033  1
  O  O37  1  0.85258667  0.32542933  0.02314033  1
  O  O38  1  0.47887233  0.30994367  0.25191167  1
  O  O39  1  0.67457067  0.52715733  0.02314033  1
  O  O40  1  0.18592000  0.19382400  0.18980700  1
  O  O41  1  0.30994367  0.47887233  0.24808833  1
  O  O42  1  0.83107133  0.52112767  0.25191167  1
  O  O43  1  0.16892867  0.69005633  0.24808833  1
  O  O44  1  0.86049067  0.34123733  0.14352633  1
  O  O45  1  0.52112767  0.83107133  0.24808833  1
  O  O46  1  0.97661033  0.16440467  0.08142167  1
  O  O47  1  0.65876267  0.51925333  0.14352633  1
  O  O48  1  0.00790400  0.81408000  0.18980700  1
  O  O49  1  0.69005633  0.16892867  0.25191167  1
  O  O50  1  0.14553900  0.50226200  0.08524500  1
  O  O51  1  0.80617600  0.99209600  0.18980700  1
  O  O52  1  0.49773800  0.64327700  0.08524500  1
  O  O53  1  0.83559533  0.81220567  0.08142167  1
  O  O54  1  0.35672300  0.85446100  0.08524500  1
  O  O55  1  0.48074667  0.13950933  0.14352633  1
  O  O56  1  0.99209600  0.80617600  0.31019300  1
  O  O57  1  0.18779433  0.02338967  0.08142167  1
  O  O58  1  0.81408000  0.00790400  0.31019300  1
  O  O59  1  0.19382400  0.18592000  0.31019300  1
  O  O60  1  0.13950933  0.48074667  0.35647367  1
  O  O61  1  0.51925333  0.65876267  0.35647367  1
  O  O62  1  0.14553900  0.64327700  0.58524500  1
  O  O63  1  0.34123733  0.86049067  0.35647367  1
  O  O64  1  0.85258667  0.52715733  0.52314033  1
  O  O65  1  0.97661033  0.81220567  0.58142167  1
  O  O66  1  0.49773800  0.85446100  0.58524500  1
  O  O67  1  0.83559533  0.02338967  0.58142167  1
  O  O68  1  0.52715733  0.67457067  0.47685967  1
  O  O69  1  0.18779433  0.16440467  0.58142167  1
  O  O70  1  0.64327700  0.49773800  0.41475500  1
  O  O71  1  0.32542933  0.85258667  0.47685967  1
  O  O72  1  0.67457067  0.14741333  0.52314033  1
  O  O73  1  0.35672300  0.50226200  0.58524500  1
  O  O74  1  0.81220567  0.83559533  0.41857833  1
  O  O75  1  0.47284267  0.32542933  0.52314033  1
  O  O76  1  0.16440467  0.97661033  0.41857833  1
  O  O77  1  0.50226200  0.14553900  0.41475500  1
  O  O78  1  0.02338967  0.18779433  0.41857833  1
  O  O79  1  0.14741333  0.47284267  0.47685967  1
  O  O80  1  0.65876267  0.13950933  0.64352633  1
  O  O81  1  0.85446100  0.35672300  0.41475500  1
  O  O82  1  0.48074667  0.34123733  0.64352633  1
  O  O83  1  0.86049067  0.51925333  0.64352633  1
  O  O84  1  0.80617600  0.81408000  0.68980700  1
  O  O85  1  0.18592000  0.99209600  0.68980700  1
  O  O86  1  0.81220567  0.97661033  0.91857833  1
  O  O87  1  0.00790400  0.19382400  0.68980700  1
  O  O88  1  0.51925333  0.86049067  0.85647367  1
  O  O89  1  0.64327700  0.14553900  0.91475500  1
  O  O90  1  0.16440467  0.18779433  0.91857833  1
  O  O91  1  0.50226200  0.35672300  0.91475500  1
  O  O92  1  0.19382400  0.00790400  0.81019300  1
  O  O93  1  0.85446100  0.49773800  0.91475500  1
  O  O94  1  0.30994367  0.83107133  0.74808833  1
  O  O95  1  0.99209600  0.18592000  0.81019300  1
  O  O96  1  0.34123733  0.48074667  0.85647367  1
  O  O97  1  0.02338967  0.83559533  0.91857833  1
  O  O98  1  0.47887233  0.16892867  0.75191167  1
  O  O99  1  0.13950933  0.65876267  0.85647367  1
  O  O100  1  0.83107133  0.30994367  0.75191167  1
  O  O101  1  0.16892867  0.47887233  0.74808833  1
  O  O102  1  0.69005633  0.52112767  0.75191167  1
  O  O103  1  0.81408000  0.80617600  0.81019300  1
  O  O104  1  0.32542933  0.47284267  0.97685967  1
  O  O105  1  0.52112767  0.69005633  0.74808833  1
  O  O106  1  0.14741333  0.67457067  0.97685967  1
  O  O107  1  0.52715733  0.85258667  0.97685967  1
