# generated using pymatgen
data_Lu6WO12
_symmetry_space_group_name_H-M   'P 1'
_cell_length_a   9.62330044
_cell_length_b   9.62330044
_cell_length_c   9.15913636
_cell_angle_alpha   90.00000000
_cell_angle_beta   90.00000000
_cell_angle_gamma   120.00000000
_symmetry_Int_Tables_number   1
_chemical_formula_structural   Lu6WO12
_chemical_formula_sum   'Lu18 W3 O36'
_cell_volume   734.57009868
_cell_formula_units_Z   3
loop_
 _symmetry_equiv_pos_site_id
 _symmetry_equiv_pos_as_xyz
  1  'x, y, z'
loop_
 _atom_site_type_symbol
 _atom_site_label
 _atom_site_symmetry_multiplicity
 _atom_site_fract_x
 _atom_site_fract_y
 _atom_site_fract_z
 _atom_site_occupancy
  Lu  Lu0  1  0.78587567  0.03879033  0.35842533  1
  Lu  Lu1  1  0.74708533  0.78587567  0.64157467  1
  Lu  Lu2  1  0.96120967  0.74708533  0.35842533  1
  Lu  Lu3  1  0.03879033  0.25291467  0.64157467  1
  Lu  Lu4  1  0.25291467  0.21412433  0.35842533  1
  Lu  Lu5  1  0.21412433  0.96120967  0.64157467  1
  Lu  Lu6  1  0.45254233  0.37212367  0.69175867  1
  Lu  Lu7  1  0.41375200  0.11920900  0.97490800  1
  Lu  Lu8  1  0.62787633  0.08041867  0.69175867  1
  Lu  Lu9  1  0.70545700  0.58624800  0.97490800  1
  Lu  Lu10  1  0.91958133  0.54745767  0.69175867  1
  Lu  Lu11  1  0.88079100  0.29454300  0.97490800  1
  Lu  Lu12  1  0.11920900  0.70545700  0.02509200  1
  Lu  Lu13  1  0.08041867  0.45254233  0.30824133  1
  Lu  Lu14  1  0.29454300  0.41375200  0.02509200  1
  Lu  Lu15  1  0.37212367  0.91958133  0.30824133  1
  Lu  Lu16  1  0.58624800  0.88079100  0.02509200  1
  Lu  Lu17  1  0.54745767  0.62787633  0.30824133  1
  W  W18  1  0.00000000  0.00000000  0.00000000  1
  W  W19  1  0.66666667  0.33333333  0.33333333  1
  W  W20  1  0.33333333  0.66666667  0.66666667  1
  O  O21  1  0.48392100  0.63066100  0.55128700  1
  O  O22  1  0.63066100  0.14674000  0.44871300  1
  O  O23  1  0.77844500  0.80839700  0.39881600  1
  O  O24  1  0.85326000  0.48392100  0.44871300  1
  O  O25  1  0.80839700  0.02995200  0.60118400  1
  O  O26  1  0.02995200  0.22155500  0.39881600  1
  O  O27  1  0.97004800  0.77844500  0.60118400  1
  O  O28  1  0.19160300  0.97004800  0.39881600  1
  O  O29  1  0.14674000  0.51607900  0.55128700  1
  O  O30  1  0.22155500  0.19160300  0.60118400  1
  O  O31  1  0.36933900  0.85326000  0.55128700  1
  O  O32  1  0.51607900  0.36933900  0.44871300  1
  O  O33  1  0.15058767  0.96399433  0.88462033  1
  O  O34  1  0.29732767  0.48007333  0.78204633  1
  O  O35  1  0.44511167  0.14173033  0.73214933  1
  O  O36  1  0.51992667  0.81725433  0.78204633  1
  O  O37  1  0.47506367  0.36328533  0.93451733  1
  O  O38  1  0.69661867  0.55488833  0.73214933  1
  O  O39  1  0.63671467  0.11177833  0.93451733  1
  O  O40  1  0.85826967  0.30338133  0.73214933  1
  O  O41  1  0.81340667  0.84941233  0.88462033  1
  O  O42  1  0.88822167  0.52493633  0.93451733  1
  O  O43  1  0.03600567  0.18659333  0.88462033  1
  O  O44  1  0.18274567  0.70267233  0.78204633  1
  O  O45  1  0.81725433  0.29732767  0.21795367  1
  O  O46  1  0.96399433  0.81340667  0.11537967  1
  O  O47  1  0.11177833  0.47506367  0.06548267  1
  O  O48  1  0.18659333  0.15058767  0.11537967  1
  O  O49  1  0.14173033  0.69661867  0.26785067  1
  O  O50  1  0.36328533  0.88822167  0.06548267  1
  O  O51  1  0.30338133  0.44511167  0.26785067  1
  O  O52  1  0.52493633  0.63671467  0.06548267  1
  O  O53  1  0.48007333  0.18274567  0.21795367  1
  O  O54  1  0.55488833  0.85826967  0.26785067  1
  O  O55  1  0.70267233  0.51992667  0.21795367  1
  O  O56  1  0.84941233  0.03600567  0.11537967  1
