# generated using pymatgen
data_TiCdFe(PO4)3
_symmetry_space_group_name_H-M   'P 1'
_cell_length_a   8.65353952
_cell_length_b   8.65353952
_cell_length_c   21.74022353
_cell_angle_alpha   90.00000000
_cell_angle_beta   90.00000000
_cell_angle_gamma   120.00000000
_symmetry_Int_Tables_number   1
_chemical_formula_structural   TiCdFe(PO4)3
_chemical_formula_sum   'Ti6 Cd6 Fe6 P18 O72'
_cell_volume   1409.88016248
_cell_formula_units_Z   6
loop_
 _symmetry_equiv_pos_site_id
 _symmetry_equiv_pos_as_xyz
  1  'x, y, z'
loop_
 _atom_site_type_symbol
 _atom_site_label
 _atom_site_symmetry_multiplicity
 _atom_site_fract_x
 _atom_site_fract_y
 _atom_site_fract_z
 _atom_site_occupancy
  Ti  Ti0  1  0.00000000  0.00000000  0.14691700  1
  Ti  Ti1  1  0.33333333  0.66666667  0.31358367  1
  Ti  Ti2  1  0.66666667  0.33333333  0.48025033  1
  Ti  Ti3  1  0.00000000  0.00000000  0.64691700  1
  Ti  Ti4  1  0.33333333  0.66666667  0.81358367  1
  Ti  Ti5  1  0.66666667  0.33333333  0.98025033  1
  Cd  Cd6  1  0.66666667  0.33333333  0.33211433  1
  Cd  Cd7  1  0.33333333  0.66666667  0.16544767  1
  Cd  Cd8  1  0.33333333  0.66666667  0.66544767  1
  Cd  Cd9  1  0.00000000  0.00000000  0.49878100  1
  Cd  Cd10  1  0.00000000  0.00000000  0.99878100  1
  Cd  Cd11  1  0.66666667  0.33333333  0.83211433  1
  Fe  Fe12  1  0.33333333  0.66666667  0.02015267  1
  Fe  Fe13  1  0.66666667  0.33333333  0.18681933  1
  Fe  Fe14  1  0.00000000  0.00000000  0.35348600  1
  Fe  Fe15  1  0.33333333  0.66666667  0.52015267  1
  Fe  Fe16  1  0.66666667  0.33333333  0.68681933  1
  Fe  Fe17  1  0.00000000  0.00000000  0.85348600  1
  P  P18  1  0.66598100  0.62367800  0.08401800  1
  P  P19  1  0.95769700  0.33401900  0.08401800  1
  P  P20  1  0.37632200  0.04230300  0.08401800  1
  P  P21  1  0.29103033  0.29034467  0.25068467  1
  P  P22  1  0.70965533  0.00068567  0.25068467  1
  P  P23  1  0.99931433  0.70896967  0.25068467  1
  P  P24  1  0.33264767  0.95701133  0.41735133  1
  P  P25  1  0.62436367  0.66735233  0.41735133  1
  P  P26  1  0.04298867  0.37563633  0.41735133  1
  P  P27  1  0.95769700  0.62367800  0.58401800  1
  P  P28  1  0.37632200  0.33401900  0.58401800  1
  P  P29  1  0.66598100  0.04230300  0.58401800  1
  P  P30  1  0.99931433  0.29034467  0.75068467  1
  P  P31  1  0.29103033  0.00068567  0.75068467  1
  P  P32  1  0.70965533  0.70896967  0.75068467  1
  P  P33  1  0.62436367  0.95701133  0.91735133  1
  P  P34  1  0.04298867  0.66735233  0.91735133  1
  P  P35  1  0.33264767  0.37563633  0.91735133  1
  O  O36  1  0.99418667  0.80465233  0.30848233  1
  O  O37  1  0.19534767  0.18953433  0.30848233  1
  O  O38  1  0.83720700  0.81222800  0.08216400  1
  O  O39  1  0.81046567  0.00581333  0.30848233  1
  O  O40  1  0.66085333  0.52286767  0.14181567  1
  O  O41  1  0.49809633  0.64296967  0.08422967  1
  O  O42  1  0.97502100  0.16279300  0.08216400  1
  O  O43  1  0.14487333  0.50190367  0.08422967  1
  O  O44  1  0.18419767  0.19198333  0.19137833  1
  O  O45  1  0.35703033  0.85512667  0.08422967  1
  O  O46  1  0.47820667  0.30963633  0.25089633  1
  O  O47  1  0.80801667  0.99221433  0.19137833  1
  O  O48  1  0.86201433  0.33914667  0.14181567  1
  O  O49  1  0.18777200  0.02497900  0.08216400  1
  O  O50  1  0.30835433  0.47889467  0.24883067  1
  O  O51  1  0.47713233  0.13798567  0.14181567  1
  O  O52  1  0.52110533  0.82945967  0.24883067  1
  O  O53  1  0.69036367  0.16857033  0.25089633  1
  O  O54  1  0.17054033  0.69164567  0.24883067  1
  O  O55  1  0.00778567  0.81580233  0.19137833  1
  O  O56  1  0.85086433  0.32554767  0.02471167  1
  O  O57  1  0.83142967  0.52179333  0.25089633  1
  O  O58  1  0.47468333  0.14913567  0.02471167  1
  O  O59  1  0.67445233  0.52531667  0.02471167  1
  O  O60  1  0.66085333  0.13798567  0.64181567  1
  O  O61  1  0.86201433  0.52286767  0.64181567  1
  O  O62  1  0.50387367  0.14556133  0.41549733  1
  O  O63  1  0.47713233  0.33914667  0.64181567  1
  O  O64  1  0.32752000  0.85620100  0.47514900  1
  O  O65  1  0.16476300  0.97630300  0.41756300  1
  O  O66  1  0.64168767  0.49612633  0.41549733  1
  O  O67  1  0.81154000  0.83523700  0.41756300  1
  O  O68  1  0.85086433  0.52531667  0.52471167  1
  O  O69  1  0.02369700  0.18846000  0.41756300  1
  O  O70  1  0.14487333  0.64296967  0.58422967  1
  O  O71  1  0.47468333  0.32554767  0.52471167  1
  O  O72  1  0.52868100  0.67248000  0.47514900  1
  O  O73  1  0.85443867  0.35831233  0.41549733  1
  O  O74  1  0.97502100  0.81222800  0.58216400  1
  O  O75  1  0.14379900  0.47131900  0.47514900  1
  O  O76  1  0.18777200  0.16279300  0.58216400  1
  O  O77  1  0.35703033  0.50190367  0.58422967  1
  O  O78  1  0.83720700  0.02497900  0.58216400  1
  O  O79  1  0.67445233  0.14913567  0.52471167  1
  O  O80  1  0.51753100  0.65888100  0.35804500  1
  O  O81  1  0.49809633  0.85512667  0.58422967  1
  O  O82  1  0.14135000  0.48246900  0.35804500  1
  O  O83  1  0.34111900  0.85865000  0.35804500  1
  O  O84  1  0.32752000  0.47131900  0.97514900  1
  O  O85  1  0.52868100  0.85620100  0.97514900  1
  O  O86  1  0.17054033  0.47889467  0.74883067  1
  O  O87  1  0.14379900  0.67248000  0.97514900  1
  O  O88  1  0.99418667  0.18953433  0.80848233  1
  O  O89  1  0.83142967  0.30963633  0.75089633  1
  O  O90  1  0.30835433  0.82945967  0.74883067  1
  O  O91  1  0.47820667  0.16857033  0.75089633  1
  O  O92  1  0.51753100  0.85865000  0.85804500  1
  O  O93  1  0.69036367  0.52179333  0.75089633  1
  O  O94  1  0.81154000  0.97630300  0.91756300  1
  O  O95  1  0.14135000  0.65888100  0.85804500  1
  O  O96  1  0.19534767  0.00581333  0.80848233  1
  O  O97  1  0.52110533  0.69164567  0.74883067  1
  O  O98  1  0.64168767  0.14556133  0.91549733  1
  O  O99  1  0.81046567  0.80465233  0.80848233  1
  O  O100  1  0.85443867  0.49612633  0.91549733  1
  O  O101  1  0.02369700  0.83523700  0.91756300  1
  O  O102  1  0.50387367  0.35831233  0.91549733  1
  O  O103  1  0.34111900  0.48246900  0.85804500  1
  O  O104  1  0.18419767  0.99221433  0.69137833  1
  O  O105  1  0.16476300  0.18846000  0.91756300  1
  O  O106  1  0.80801667  0.81580233  0.69137833  1
  O  O107  1  0.00778567  0.19198333  0.69137833  1
