# generated using pymatgen
data_Li2CoOF3
_symmetry_space_group_name_H-M   'P 1'
_cell_length_a   5.89458550
_cell_length_b   5.89458550
_cell_length_c   8.58897100
_cell_angle_alpha   90.00000000
_cell_angle_beta   90.00000000
_cell_angle_gamma   90.00000000
_symmetry_Int_Tables_number   1
_chemical_formula_structural   Li2CoOF3
_chemical_formula_sum   'Li8 Co4 O4 F12'
_cell_volume   298.43357360
_cell_formula_units_Z   4
loop_
 _symmetry_equiv_pos_site_id
 _symmetry_equiv_pos_as_xyz
  1  'x, y, z'
loop_
 _atom_site_type_symbol
 _atom_site_label
 _atom_site_symmetry_multiplicity
 _atom_site_fract_x
 _atom_site_fract_y
 _atom_site_fract_z
 _atom_site_occupancy
  Li  Li0  1  0.74170000  0.75711100  0.37506300  1
  Li  Li1  1  0.75711100  0.25830000  0.12506300  1
  Li  Li2  1  0.24288900  0.74170000  0.62506300  1
  Li  Li3  1  0.25830000  0.24288900  0.87506300  1
  Li  Li4  1  0.75891400  0.99954900  0.75052000  1
  Li  Li5  1  0.00045100  0.75891400  0.00052000  1
  Li  Li6  1  0.99954900  0.24108600  0.50052000  1
  Li  Li7  1  0.24108600  0.00045100  0.25052000  1
  Co  Co8  1  0.74037700  0.48322800  0.76129600  1
  Co  Co9  1  0.25962300  0.51677200  0.26129600  1
  Co  Co10  1  0.51677200  0.74037700  0.01129600  1
  Co  Co11  1  0.48322800  0.25962300  0.51129600  1
  O  O12  1  0.52801000  0.27272400  0.73219000  1
  O  O13  1  0.72727600  0.52801000  0.98219000  1
  O  O14  1  0.27272400  0.47199000  0.48219000  1
  O  O15  1  0.47199000  0.72727600  0.23219000  1
  F  F16  1  0.51051200  0.75812800  0.76024100  1
  F  F17  1  0.75812800  0.48948800  0.51024100  1
  F  F18  1  0.24187200  0.51051200  0.01024100  1
  F  F19  1  0.48948800  0.24187200  0.26024100  1
  F  F20  1  0.74817500  0.99158400  0.99558900  1
  F  F21  1  0.99158400  0.25182500  0.74558900  1
  F  F22  1  0.00841600  0.74817500  0.24558900  1
  F  F23  1  0.25182500  0.00841600  0.49558900  1
  F  F24  1  0.73305600  0.03011300  0.50010600  1
  F  F25  1  0.96988700  0.73305600  0.75010600  1
  F  F26  1  0.03011300  0.26694400  0.25010600  1
  F  F27  1  0.26694400  0.96988700  0.00010600  1
