# generated using pymatgen
data_Mn3O5F
_symmetry_space_group_name_H-M   'P 1'
_cell_length_a   6.31262861
_cell_length_b   19.82544627
_cell_length_c   2.98667000
_cell_angle_alpha   90.00000000
_cell_angle_beta   90.00000000
_cell_angle_gamma   90.00000000
_symmetry_Int_Tables_number   1
_chemical_formula_structural   Mn3O5F
_chemical_formula_sum   'Mn12 O20 F4'
_cell_volume   373.78377977
_cell_formula_units_Z   4
loop_
 _symmetry_equiv_pos_site_id
 _symmetry_equiv_pos_as_xyz
  1  'x, y, z'
loop_
 _atom_site_type_symbol
 _atom_site_label
 _atom_site_symmetry_multiplicity
 _atom_site_fract_x
 _atom_site_fract_y
 _atom_site_fract_z
 _atom_site_occupancy
  Mn  Mn0  1  0.50000000  0.82176550  0.00000000  1
  Mn  Mn1  1  0.50000000  0.66222200  0.50000000  1
  Mn  Mn2  1  0.50000000  0.33777800  0.50000000  1
  Mn  Mn3  1  0.50000000  0.50000000  0.00000000  1
  Mn  Mn4  1  0.00000000  0.67823450  0.00000000  1
  Mn  Mn5  1  0.00000000  0.50000000  0.50000000  1
  Mn  Mn6  1  0.00000000  0.32176550  0.00000000  1
  Mn  Mn7  1  0.00000000  0.16222200  0.50000000  1
  Mn  Mn8  1  0.00000000  0.83777800  0.50000000  1
  Mn  Mn9  1  0.00000000  0.00000000  0.00000000  1
  Mn  Mn10  1  0.50000000  0.17823450  0.00000000  1
  Mn  Mn11  1  0.50000000  0.00000000  0.50000000  1
  O  O12  1  0.50000000  0.76224000  0.50000000  1
  O  O13  1  0.30316450  0.33476000  0.00000000  1
  O  O14  1  0.69683550  0.66524000  0.00000000  1
  O  O15  1  0.69683550  0.33476000  0.00000000  1
  O  O16  1  0.19562600  0.50000000  0.00000000  1
  O  O17  1  0.50000000  0.56345650  0.50000000  1
  O  O18  1  0.00000000  0.73776000  0.50000000  1
  O  O19  1  0.50000000  0.43654350  0.50000000  1
  O  O20  1  0.80437400  0.50000000  0.00000000  1
  O  O21  1  0.30316450  0.66524000  0.00000000  1
  O  O22  1  0.00000000  0.26224000  0.50000000  1
  O  O23  1  0.80316450  0.83476000  0.00000000  1
  O  O24  1  0.19683550  0.16524000  0.00000000  1
  O  O25  1  0.19683550  0.83476000  0.00000000  1
  O  O26  1  0.69562600  0.00000000  0.00000000  1
  O  O27  1  0.00000000  0.06345650  0.50000000  1
  O  O28  1  0.50000000  0.23776000  0.50000000  1
  O  O29  1  0.00000000  0.93654350  0.50000000  1
  O  O30  1  0.30437400  0.00000000  0.00000000  1
  O  O31  1  0.80316450  0.16524000  0.00000000  1
  F  F32  1  0.00000000  0.60858550  0.50000000  1
  F  F33  1  0.00000000  0.39141450  0.50000000  1
  F  F34  1  0.50000000  0.10858550  0.50000000  1
  F  F35  1  0.50000000  0.89141450  0.50000000  1
