# generated using pymatgen
data_Fe3O5F
_symmetry_space_group_name_H-M   'P 1'
_cell_length_a   6.40602000
_cell_length_b   6.70435200
_cell_length_c   9.03492600
_cell_angle_alpha   90.00000000
_cell_angle_beta   90.00000000
_cell_angle_gamma   90.00000000
_symmetry_Int_Tables_number   1
_chemical_formula_structural   Fe3O5F
_chemical_formula_sum   'Fe12 O20 F4'
_cell_volume   388.03392628
_cell_formula_units_Z   4
loop_
 _symmetry_equiv_pos_site_id
 _symmetry_equiv_pos_as_xyz
  1  'x, y, z'
loop_
 _atom_site_type_symbol
 _atom_site_label
 _atom_site_symmetry_multiplicity
 _atom_site_fract_x
 _atom_site_fract_y
 _atom_site_fract_z
 _atom_site_occupancy
  Fe  Fe0  1  0.50000000  0.48913700  0.33956800  1
  Fe  Fe1  1  0.50000000  0.48913700  0.66043200  1
  Fe  Fe2  1  0.50000000  0.48633300  0.00000000  1
  Fe  Fe3  1  0.50000000  0.99606800  0.50000000  1
  Fe  Fe4  1  0.50000000  0.01759800  0.16682900  1
  Fe  Fe5  1  0.50000000  0.01759800  0.83317100  1
  Fe  Fe6  1  0.00000000  0.98913700  0.33956800  1
  Fe  Fe7  1  0.00000000  0.98913700  0.66043200  1
  Fe  Fe8  1  0.00000000  0.98633300  0.00000000  1
  Fe  Fe9  1  0.00000000  0.49606800  0.50000000  1
  Fe  Fe10  1  0.00000000  0.51759800  0.16682900  1
  Fe  Fe11  1  0.00000000  0.51759800  0.83317100  1
  O  O12  1  0.50000000  0.29465700  0.50000000  1
  O  O13  1  0.50000000  0.31582500  0.82790700  1
  O  O14  1  0.50000000  0.31582500  0.17209300  1
  O  O15  1  0.30687650  0.99715450  0.33020100  1
  O  O16  1  0.30687650  0.99715450  0.66979900  1
  O  O17  1  0.30694900  0.00542500  0.00000000  1
  O  O18  1  0.69312350  0.99715450  0.33020100  1
  O  O19  1  0.69312350  0.99715450  0.66979900  1
  O  O20  1  0.69305100  0.00542500  0.00000000  1
  O  O21  1  0.50000000  0.68248700  0.50000000  1
  O  O22  1  0.00000000  0.79465700  0.50000000  1
  O  O23  1  0.00000000  0.81582500  0.82790700  1
  O  O24  1  0.00000000  0.81582500  0.17209300  1
  O  O25  1  0.80687650  0.49715450  0.33020100  1
  O  O26  1  0.80687650  0.49715450  0.66979900  1
  O  O27  1  0.80694900  0.50542500  0.00000000  1
  O  O28  1  0.19312350  0.49715450  0.33020100  1
  O  O29  1  0.19312350  0.49715450  0.66979900  1
  O  O30  1  0.19305100  0.50542500  0.00000000  1
  O  O31  1  0.00000000  0.18248700  0.50000000  1
  F  F32  1  0.50000000  0.69793300  0.16482900  1
  F  F33  1  0.50000000  0.69793300  0.83517100  1
  F  F34  1  0.00000000  0.19793300  0.16482900  1
  F  F35  1  0.00000000  0.19793300  0.83517100  1
