# generated using pymatgen
data_Li2Cr2O7
_symmetry_space_group_name_H-M   'P 1'
_cell_length_a   7.65290800
_cell_length_b   8.52462600
_cell_length_c   9.98118132
_cell_angle_alpha   90.00000000
_cell_angle_beta   111.70418625
_cell_angle_gamma   90.00000000
_symmetry_Int_Tables_number   1
_chemical_formula_structural   Li2Cr2O7
_chemical_formula_sum   'Li8 Cr8 O28'
_cell_volume   604.99088035
_cell_formula_units_Z   4
loop_
 _symmetry_equiv_pos_site_id
 _symmetry_equiv_pos_as_xyz
  1  'x, y, z'
loop_
 _atom_site_type_symbol
 _atom_site_label
 _atom_site_symmetry_multiplicity
 _atom_site_fract_x
 _atom_site_fract_y
 _atom_site_fract_z
 _atom_site_occupancy
  Li  Li0  1  0.47372650  0.81815850  0.50978400  1
  Li  Li1  1  0.52627350  0.81815850  0.99021600  1
  Li  Li2  1  0.47372650  0.18184150  0.00978400  1
  Li  Li3  1  0.52627350  0.18184150  0.49021600  1
  Li  Li4  1  0.97372650  0.31815850  0.50978400  1
  Li  Li5  1  0.02627350  0.31815850  0.99021600  1
  Li  Li6  1  0.97372650  0.68184150  0.00978400  1
  Li  Li7  1  0.02627350  0.68184150  0.49021600  1
  Cr  Cr8  1  0.80014600  0.99006800  0.79243600  1
  Cr  Cr9  1  0.80014600  0.00993200  0.29243600  1
  Cr  Cr10  1  0.19985400  0.99006800  0.70756400  1
  Cr  Cr11  1  0.19985400  0.00993200  0.20756400  1
  Cr  Cr12  1  0.30014600  0.49006800  0.79243600  1
  Cr  Cr13  1  0.30014600  0.50993200  0.29243600  1
  Cr  Cr14  1  0.69985400  0.49006800  0.70756400  1
  Cr  Cr15  1  0.69985400  0.50993200  0.20756400  1
  O  O16  1  0.82929250  0.15292050  0.88398500  1
  O  O17  1  0.77458850  0.84409350  0.89070200  1
  O  O18  1  0.61566200  0.00357900  0.64036200  1
  O  O19  1  0.82929250  0.84707950  0.38398500  1
  O  O20  1  0.50000000  0.45300100  0.75000000  1
  O  O21  1  0.77458850  0.15590650  0.39070200  1
  O  O22  1  0.61566200  0.99642100  0.14036200  1
  O  O23  1  0.38433800  0.00357900  0.85963800  1
  O  O24  1  0.22541150  0.84409350  0.60929800  1
  O  O25  1  0.50000000  0.54699900  0.25000000  1
  O  O26  1  0.17070750  0.15292050  0.61601500  1
  O  O27  1  0.38433800  0.99642100  0.35963800  1
  O  O28  1  0.22541150  0.15590650  0.10929800  1
  O  O29  1  0.17070750  0.84707950  0.11601500  1
  O  O30  1  0.32929250  0.65292050  0.88398500  1
  O  O31  1  0.27458850  0.34409350  0.89070200  1
  O  O32  1  0.11566200  0.50357900  0.64036200  1
  O  O33  1  0.32929250  0.34707950  0.38398500  1
  O  O34  1  0.00000000  0.95300100  0.75000000  1
  O  O35  1  0.27458850  0.65590650  0.39070200  1
  O  O36  1  0.11566200  0.49642100  0.14036200  1
  O  O37  1  0.88433800  0.50357900  0.85963800  1
  O  O38  1  0.72541150  0.34409350  0.60929800  1
  O  O39  1  0.00000000  0.04699900  0.25000000  1
  O  O40  1  0.67070750  0.65292050  0.61601500  1
  O  O41  1  0.88433800  0.49642100  0.35963800  1
  O  O42  1  0.72541150  0.65590650  0.10929800  1
  O  O43  1  0.67070750  0.34707950  0.11601500  1
