# generated using pymatgen
data_CoBiO4
_symmetry_space_group_name_H-M   'P 1'
_cell_length_a   5.69577000
_cell_length_b   6.80990200
_cell_length_c   8.56828400
_cell_angle_alpha   90.00000000
_cell_angle_beta   90.00000000
_cell_angle_gamma   90.00000000
_symmetry_Int_Tables_number   1
_chemical_formula_structural   CoBiO4
_chemical_formula_sum   'Co4 Bi4 O16'
_cell_volume   332.34347678
_cell_formula_units_Z   4
loop_
 _symmetry_equiv_pos_site_id
 _symmetry_equiv_pos_as_xyz
  1  'x, y, z'
loop_
 _atom_site_type_symbol
 _atom_site_label
 _atom_site_symmetry_multiplicity
 _atom_site_fract_x
 _atom_site_fract_y
 _atom_site_fract_z
 _atom_site_occupancy
  Co  Co0  1  0.25000000  0.25000000  0.25000000  1
  Co  Co1  1  0.75000000  0.25000000  0.25000000  1
  Co  Co2  1  0.75000000  0.75000000  0.75000000  1
  Co  Co3  1  0.25000000  0.75000000  0.75000000  1
  Bi  Bi4  1  0.50000000  0.00000000  0.50000000  1
  Bi  Bi5  1  0.00000000  0.00000000  0.00000000  1
  Bi  Bi6  1  0.00000000  0.50000000  0.00000000  1
  Bi  Bi7  1  0.50000000  0.50000000  0.50000000  1
  O  O8  1  0.24974100  0.75000000  0.52570700  1
  O  O9  1  0.50000000  0.06134400  0.25183800  1
  O  O10  1  0.00000000  0.06134400  0.24816200  1
  O  O11  1  0.24974100  0.25000000  0.47429300  1
  O  O12  1  0.75025900  0.75000000  0.52570700  1
  O  O13  1  0.00000000  0.93865600  0.75183800  1
  O  O14  1  0.50000000  0.93865600  0.74816200  1
  O  O15  1  0.75025900  0.25000000  0.47429300  1
  O  O16  1  0.74974100  0.25000000  0.02570700  1
  O  O17  1  0.00000000  0.56134400  0.75183800  1
  O  O18  1  0.50000000  0.56134400  0.74816200  1
  O  O19  1  0.74974100  0.75000000  0.97429300  1
  O  O20  1  0.25025900  0.25000000  0.02570700  1
  O  O21  1  0.50000000  0.43865600  0.25183800  1
  O  O22  1  0.00000000  0.43865600  0.24816200  1
  O  O23  1  0.25025900  0.75000000  0.97429300  1
