# generated using pymatgen
data_Li3Fe8O3F13
_symmetry_space_group_name_H-M   'P 1'
_cell_length_a   10.96638000
_cell_length_b   6.25132600
_cell_length_c   10.45076976
_cell_angle_alpha   90.00000000
_cell_angle_beta   110.80925998
_cell_angle_gamma   90.00000000
_symmetry_Int_Tables_number   1
_chemical_formula_structural   Li3Fe8O3F13
_chemical_formula_sum   'Li6 Fe16 O6 F26'
_cell_volume   669.71138462
_cell_formula_units_Z   2
loop_
 _symmetry_equiv_pos_site_id
 _symmetry_equiv_pos_as_xyz
  1  'x, y, z'
loop_
 _atom_site_type_symbol
 _atom_site_label
 _atom_site_symmetry_multiplicity
 _atom_site_fract_x
 _atom_site_fract_y
 _atom_site_fract_z
 _atom_site_occupancy
  Li  Li0  1  0.50923100  0.50000000  0.01055000  1
  Li  Li1  1  0.18610500  0.00000000  0.57002000  1
  Li  Li2  1  0.80681400  0.00000000  0.42815900  1
  Li  Li3  1  0.00923100  0.00000000  0.01055000  1
  Li  Li4  1  0.68610500  0.50000000  0.57002000  1
  Li  Li5  1  0.30681400  0.50000000  0.42815900  1
  Fe  Fe6  1  0.76009600  0.24135100  0.00843300  1
  Fe  Fe7  1  0.76009600  0.75864900  0.00843300  1
  Fe  Fe8  1  0.00213450  0.73959550  0.75027600  1
  Fe  Fe9  1  0.24449700  0.50000000  0.73442200  1
  Fe  Fe10  1  0.00213450  0.26040450  0.75027600  1
  Fe  Fe11  1  0.99540500  0.75611000  0.24719700  1
  Fe  Fe12  1  0.99540500  0.24389000  0.24719700  1
  Fe  Fe13  1  0.76371100  0.50000000  0.26631800  1
  Fe  Fe14  1  0.26009600  0.74135100  0.00843300  1
  Fe  Fe15  1  0.26009600  0.25864900  0.00843300  1
  Fe  Fe16  1  0.50213450  0.23959550  0.75027600  1
  Fe  Fe17  1  0.74449700  0.00000000  0.73442200  1
  Fe  Fe18  1  0.50213450  0.76040450  0.75027600  1
  Fe  Fe19  1  0.49540500  0.25611000  0.24719700  1
  Fe  Fe20  1  0.49540500  0.74389000  0.24719700  1
  Fe  Fe21  1  0.26371100  0.00000000  0.26631800  1
  O  O22  1  0.14378600  0.50000000  0.87648100  1
  O  O23  1  0.89622200  0.00000000  0.12249100  1
  O  O24  1  0.86000700  0.50000000  0.11922900  1
  O  O25  1  0.64378600  0.00000000  0.87648100  1
  O  O26  1  0.39622200  0.50000000  0.12249100  1
  O  O27  1  0.36000700  0.00000000  0.11922900  1
  F  F28  1  0.38348850  0.28233750  0.86540900  1
  F  F29  1  0.11705000  0.00000000  0.87843000  1
  F  F30  1  0.38348850  0.71766250  0.86540900  1
  F  F31  1  0.12105450  0.75046750  0.63499200  1
  F  F32  1  0.88167100  0.00000000  0.63227200  1
  F  F33  1  0.87868200  0.50000000  0.63682900  1
  F  F34  1  0.12105450  0.24953250  0.63499200  1
  F  F35  1  0.11584800  0.50000000  0.34920200  1
  F  F36  1  0.87452950  0.75723550  0.36956000  1
  F  F37  1  0.12622400  0.00000000  0.37298600  1
  F  F38  1  0.87452950  0.24276450  0.36956000  1
  F  F39  1  0.63007450  0.28432350  0.12948500  1
  F  F40  1  0.63007450  0.71567650  0.12948500  1
  F  F41  1  0.88348850  0.78233750  0.86540900  1
  F  F42  1  0.61705000  0.50000000  0.87843000  1
  F  F43  1  0.88348850  0.21766250  0.86540900  1
  F  F44  1  0.62105450  0.25046750  0.63499200  1
  F  F45  1  0.38167100  0.50000000  0.63227200  1
  F  F46  1  0.37868200  0.00000000  0.63682900  1
  F  F47  1  0.62105450  0.74953250  0.63499200  1
  F  F48  1  0.61584800  0.00000000  0.34920200  1
  F  F49  1  0.37452950  0.25723550  0.36956000  1
  F  F50  1  0.62622400  0.50000000  0.37298600  1
  F  F51  1  0.37452950  0.74276450  0.36956000  1
  F  F52  1  0.13007450  0.78432350  0.12948500  1
  F  F53  1  0.13007450  0.21567650  0.12948500  1
