# generated using pymatgen
data_K(CoO2)2
_symmetry_space_group_name_H-M   'P 1'
_cell_length_a   4.93524545
_cell_length_b   5.70645918
_cell_length_c   12.59067275
_cell_angle_alpha   90.00000000
_cell_angle_beta   90.00000000
_cell_angle_gamma   90.00000000
_symmetry_Int_Tables_number   1
_chemical_formula_structural   K(CoO2)2
_chemical_formula_sum   'K4 Co8 O16'
_cell_volume   354.58830511
_cell_formula_units_Z   4
loop_
 _symmetry_equiv_pos_site_id
 _symmetry_equiv_pos_as_xyz
  1  'x, y, z'
loop_
 _atom_site_type_symbol
 _atom_site_label
 _atom_site_symmetry_multiplicity
 _atom_site_fract_x
 _atom_site_fract_y
 _atom_site_fract_z
 _atom_site_occupancy
  K  K0  1  0.96324700  0.00000000  0.50000000  1
  K  K1  1  0.63611400  0.00000000  0.00000000  1
  K  K2  1  0.36388600  0.50000000  0.50000000  1
  K  K3  1  0.03675300  0.50000000  0.00000000  1
  Co  Co4  1  0.00045400  0.00000000  0.75289600  1
  Co  Co5  1  0.00045400  0.00000000  0.24710400  1
  Co  Co6  1  0.50000000  0.75000000  0.75000000  1
  Co  Co7  1  0.50000000  0.75000000  0.25000000  1
  Co  Co8  1  0.99954600  0.50000000  0.74710400  1
  Co  Co9  1  0.99954600  0.50000000  0.25289600  1
  Co  Co10  1  0.50000000  0.25000000  0.25000000  1
  Co  Co11  1  0.50000000  0.25000000  0.75000000  1
  O  O12  1  0.66364100  0.00000000  0.32680500  1
  O  O13  1  0.66364100  0.00000000  0.67319500  1
  O  O14  1  0.33475900  0.00000000  0.17371900  1
  O  O15  1  0.33475900  0.00000000  0.82628100  1
  O  O16  1  0.16818500  0.74950200  0.32916800  1
  O  O17  1  0.16818500  0.74950200  0.67083200  1
  O  O18  1  0.83181500  0.75049800  0.17083200  1
  O  O19  1  0.83181500  0.75049800  0.82916800  1
  O  O20  1  0.66524100  0.50000000  0.32628100  1
  O  O21  1  0.66524100  0.50000000  0.67371900  1
  O  O22  1  0.33635900  0.50000000  0.17319500  1
  O  O23  1  0.33635900  0.50000000  0.82680500  1
  O  O24  1  0.16818500  0.25049800  0.32916800  1
  O  O25  1  0.16818500  0.25049800  0.67083200  1
  O  O26  1  0.83181500  0.24950200  0.17083200  1
  O  O27  1  0.83181500  0.24950200  0.82916800  1
