# generated using pymatgen
data_Li5MgTi12O24
_symmetry_space_group_name_H-M   'P 1'
_cell_length_a   5.99481828
_cell_length_b   5.99481828
_cell_length_c   14.75757100
_cell_angle_alpha   90.00000000
_cell_angle_beta   90.00000000
_cell_angle_gamma   120.00000000
_symmetry_Int_Tables_number   1
_chemical_formula_structural   Li5MgTi12O24
_chemical_formula_sum   'Li5 Mg1 Ti12 O24'
_cell_volume   459.30117727
_cell_formula_units_Z   1
loop_
 _symmetry_equiv_pos_site_id
 _symmetry_equiv_pos_as_xyz
  1  'x, y, z'
loop_
 _atom_site_type_symbol
 _atom_site_label
 _atom_site_symmetry_multiplicity
 _atom_site_fract_x
 _atom_site_fract_y
 _atom_site_fract_z
 _atom_site_occupancy
  Li  Li0  1  0.00000000  0.00000000  0.04218800  1
  Li  Li1  1  0.00000000  0.00000000  0.29011900  1
  Li  Li2  1  0.66666667  0.33333333  0.37590800  1
  Li  Li3  1  0.66666667  0.33333333  0.62026300  1
  Li  Li4  1  0.33333333  0.66666667  0.96180400  1
  Mg  Mg5  1  0.00000000  0.00000000  0.66372300  1
  Ti  Ti6  1  0.50018150  0.00036300  0.16694700  1
  Ti  Ti7  1  0.16256400  0.83743600  0.49879000  1
  Ti  Ti8  1  0.50018150  0.49981850  0.16694700  1
  Ti  Ti9  1  0.33333333  0.66666667  0.33288600  1
  Ti  Ti10  1  0.66666667  0.33333333  0.00183600  1
  Ti  Ti11  1  0.99963700  0.49981850  0.16694700  1
  Ti  Ti12  1  0.67487200  0.83743600  0.49879000  1
  Ti  Ti13  1  0.16256400  0.32512800  0.49879000  1
  Ti  Ti14  1  0.34230100  0.17115050  0.83806200  1
  Ti  Ti15  1  0.33333333  0.66666667  0.70976800  1
  Ti  Ti16  1  0.82884950  0.17115050  0.83806200  1
  Ti  Ti17  1  0.82884950  0.65769900  0.83806200  1
  O  O18  1  0.36660100  0.18330050  0.08826700  1
  O  O19  1  0.81669950  0.18330050  0.08826700  1
  O  O20  1  0.33333333  0.66666667  0.09673200  1
  O  O21  1  0.18397800  0.81602200  0.24586100  1
  O  O22  1  0.18397800  0.36795600  0.24586100  1
  O  O23  1  0.63204400  0.81602200  0.24586100  1
  O  O24  1  0.30457900  0.15228950  0.57413800  1
  O  O25  1  0.81669950  0.63339900  0.08826700  1
  O  O26  1  0.48132150  0.96264300  0.42084300  1
  O  O27  1  0.48132150  0.51867850  0.42084300  1
  O  O28  1  0.66666667  0.33333333  0.23700900  1
  O  O29  1  0.33333333  0.66666667  0.57925100  1
  O  O30  1  0.00000000  0.00000000  0.42668700  1
  O  O31  1  0.84771050  0.15228950  0.57413800  1
  O  O32  1  0.84771050  0.69542100  0.57413800  1
  O  O33  1  0.51521450  0.03042900  0.91316200  1
  O  O34  1  0.03735700  0.51867850  0.42084300  1
  O  O35  1  0.67789300  0.83894650  0.75295900  1
  O  O36  1  0.16105350  0.32210700  0.75295900  1
  O  O37  1  0.16105350  0.83894650  0.75295900  1
  O  O38  1  0.00000000  0.00000000  0.90168300  1
  O  O39  1  0.66666667  0.33333333  0.76305600  1
  O  O40  1  0.51521450  0.48478550  0.91316200  1
  O  O41  1  0.96957100  0.48478550  0.91316200  1
