# generated using pymatgen
data_Li2Cr2Si2O9
_symmetry_space_group_name_H-M   'P 1'
_cell_length_a   5.17085361
_cell_length_b   8.39541000
_cell_length_c   13.99523764
_cell_angle_alpha   90.00000000
_cell_angle_beta   90.00000000
_cell_angle_gamma   90.00000000
_symmetry_Int_Tables_number   1
_chemical_formula_structural   Li2Cr2Si2O9
_chemical_formula_sum   'Li8 Cr8 Si8 O36'
_cell_volume   607.55336448
_cell_formula_units_Z   4
loop_
 _symmetry_equiv_pos_site_id
 _symmetry_equiv_pos_as_xyz
  1  'x, y, z'
loop_
 _atom_site_type_symbol
 _atom_site_label
 _atom_site_symmetry_multiplicity
 _atom_site_fract_x
 _atom_site_fract_y
 _atom_site_fract_z
 _atom_site_occupancy
  Li  Li0  1  0.35231700  0.44505200  0.16087550  1
  Li  Li1  1  0.85231700  0.05494800  0.16087550  1
  Li  Li2  1  0.85231700  0.94505200  0.33912450  1
  Li  Li3  1  0.35231700  0.55494800  0.33912450  1
  Li  Li4  1  0.64768300  0.44505200  0.66087550  1
  Li  Li5  1  0.14768300  0.05494800  0.66087550  1
  Li  Li6  1  0.14768300  0.94505200  0.83912450  1
  Li  Li7  1  0.64768300  0.55494800  0.83912450  1
  Cr  Cr8  1  0.36570200  0.84389800  0.17053550  1
  Cr  Cr9  1  0.86570200  0.65610200  0.17053550  1
  Cr  Cr10  1  0.86570200  0.34389800  0.32946450  1
  Cr  Cr11  1  0.36570200  0.15610200  0.32946450  1
  Cr  Cr12  1  0.63429800  0.84389800  0.67053550  1
  Cr  Cr13  1  0.13429800  0.65610200  0.67053550  1
  Cr  Cr14  1  0.13429800  0.34389800  0.82946450  1
  Cr  Cr15  1  0.63429800  0.15610200  0.82946450  1
  Si  Si16  1  0.78645000  0.34651200  0.02656250  1
  Si  Si17  1  0.28645000  0.15348800  0.02656250  1
  Si  Si18  1  0.28645000  0.84651200  0.47343750  1
  Si  Si19  1  0.78645000  0.65348800  0.47343750  1
  Si  Si20  1  0.21355000  0.34651200  0.52656250  1
  Si  Si21  1  0.71355000  0.15348800  0.52656250  1
  Si  Si22  1  0.71355000  0.84651200  0.97343750  1
  Si  Si23  1  0.21355000  0.65348800  0.97343750  1
  O  O24  1  0.54885900  0.23736100  0.07010150  1
  O  O25  1  0.04885900  0.26263900  0.07010150  1
  O  O26  1  0.74331300  0.52108400  0.07203650  1
  O  O27  1  0.24331300  0.97891600  0.07203650  1
  O  O28  1  0.71307100  0.84679000  0.09056350  1
  O  O29  1  0.21307100  0.65321000  0.09056350  1
  O  O30  1  0.55939200  0.67591800  0.23127850  1
  O  O31  1  0.05939200  0.82408200  0.23127850  1
  O  O32  1  0.02267200  0.50000000  0.25000000  1
  O  O33  1  0.52267200  0.00000000  0.25000000  1
  O  O34  1  0.55939200  0.32408200  0.26872150  1
  O  O35  1  0.05939200  0.17591800  0.26872150  1
  O  O36  1  0.21307100  0.34679000  0.40943650  1
  O  O37  1  0.71307100  0.15321000  0.40943650  1
  O  O38  1  0.74331300  0.47891600  0.42796350  1
  O  O39  1  0.24331300  0.02108400  0.42796350  1
  O  O40  1  0.54885900  0.76263900  0.42989850  1
  O  O41  1  0.04885900  0.73736100  0.42989850  1
  O  O42  1  0.95114100  0.26263900  0.57010150  1
  O  O43  1  0.45114100  0.23736100  0.57010150  1
  O  O44  1  0.75668700  0.97891600  0.57203650  1
  O  O45  1  0.25668700  0.52108400  0.57203650  1
  O  O46  1  0.28692900  0.84679000  0.59056350  1
  O  O47  1  0.78692900  0.65321000  0.59056350  1
  O  O48  1  0.94060800  0.82408200  0.73127850  1
  O  O49  1  0.44060800  0.67591800  0.73127850  1
  O  O50  1  0.97732800  0.50000000  0.75000000  1
  O  O51  1  0.47732800  0.00000000  0.75000000  1
  O  O52  1  0.44060800  0.32408200  0.76872150  1
  O  O53  1  0.94060800  0.17591800  0.76872150  1
  O  O54  1  0.78692900  0.34679000  0.90943650  1
  O  O55  1  0.28692900  0.15321000  0.90943650  1
  O  O56  1  0.25668700  0.47891600  0.92796350  1
  O  O57  1  0.75668700  0.02108400  0.92796350  1
  O  O58  1  0.45114100  0.76263900  0.92989850  1
  O  O59  1  0.95114100  0.73736100  0.92989850  1
