# generated using pymatgen
data_Li3Cr4(PO4)6
_symmetry_space_group_name_H-M   'P 1'
_cell_length_a   11.85328200
_cell_length_b   12.36812200
_cell_length_c   6.31967410
_cell_angle_alpha   90.00000000
_cell_angle_beta   111.97296970
_cell_angle_gamma   90.00000000
_symmetry_Int_Tables_number   1
_chemical_formula_structural   Li3Cr4(PO4)6
_chemical_formula_sum   'Li6 Cr8 P12 O48'
_cell_volume   859.18293730
_cell_formula_units_Z   2
loop_
 _symmetry_equiv_pos_site_id
 _symmetry_equiv_pos_as_xyz
  1  'x, y, z'
loop_
 _atom_site_type_symbol
 _atom_site_label
 _atom_site_symmetry_multiplicity
 _atom_site_fract_x
 _atom_site_fract_y
 _atom_site_fract_z
 _atom_site_occupancy
  Li  Li0  1  0.50027400  0.00129500  0.24963300  1
  Li  Li1  1  0.49972600  0.00129500  0.75036700  1
  Li  Li2  1  0.50000000  0.48175800  0.50000000  1
  Li  Li3  1  0.00027400  0.50129500  0.24963300  1
  Li  Li4  1  0.99972600  0.50129500  0.75036700  1
  Li  Li5  1  0.00000000  0.98175800  0.50000000  1
  Cr  Cr6  1  0.22086400  0.83786700  0.89413900  1
  Cr  Cr7  1  0.21968300  0.16071200  0.38980400  1
  Cr  Cr8  1  0.77913600  0.83786700  0.10586100  1
  Cr  Cr9  1  0.78031700  0.16071200  0.61019600  1
  Cr  Cr10  1  0.72086400  0.33786700  0.89413900  1
  Cr  Cr11  1  0.71968300  0.66071200  0.38980400  1
  Cr  Cr12  1  0.27913600  0.33786700  0.10586100  1
  Cr  Cr13  1  0.28031700  0.66071200  0.61019600  1
  P  P14  1  0.25324850  0.90399650  0.39890800  1
  P  P15  1  0.50000000  0.77242900  0.00000000  1
  P  P16  1  0.25289700  0.09552000  0.89257500  1
  P  P17  1  0.74675150  0.90399650  0.60109200  1
  P  P18  1  0.50000000  0.22733500  0.50000000  1
  P  P19  1  0.74710300  0.09552000  0.10742500  1
  P  P20  1  0.75324850  0.40399650  0.39890800  1
  P  P21  1  0.00000000  0.27242900  0.00000000  1
  P  P22  1  0.75289700  0.59552000  0.89257500  1
  P  P23  1  0.24675150  0.40399650  0.60109200  1
  P  P24  1  0.00000000  0.72733500  0.50000000  1
  P  P25  1  0.24710300  0.59552000  0.10742500  1
  O  O26  1  0.24226800  0.82450800  0.58853200  1
  O  O27  1  0.19468900  0.83778200  0.17348200  1
  O  O28  1  0.17011300  0.00309800  0.38491300  1
  O  O29  1  0.45014500  0.69963400  0.78598400  1
  O  O30  1  0.54985500  0.69963400  0.21401600  1
  O  O31  1  0.17124150  0.99371450  0.86129100  1
  O  O32  1  0.38306300  0.93551900  0.44882800  1
  O  O33  1  0.19277750  0.16392650  0.67148800  1
  O  O34  1  0.40196600  0.84904700  0.02813100  1
  O  O35  1  0.24069950  0.17273250  0.08505900  1
  O  O36  1  0.61693700  0.93551900  0.55117200  1
  O  O37  1  0.59803400  0.84904700  0.97186900  1
  O  O38  1  0.40257300  0.15136500  0.52912000  1
  O  O39  1  0.38431950  0.06573150  0.94967200  1
  O  O40  1  0.75773200  0.82450800  0.41146800  1
  O  O41  1  0.59742700  0.15136500  0.47088000  1
  O  O42  1  0.80531100  0.83778200  0.82651800  1
  O  O43  1  0.61568050  0.06573150  0.05032800  1
  O  O44  1  0.82988700  0.00309800  0.61508700  1
  O  O45  1  0.44944500  0.30449100  0.29098500  1
  O  O46  1  0.55055500  0.30449100  0.70901500  1
  O  O47  1  0.82875850  0.99371450  0.13870900  1
  O  O48  1  0.80722250  0.16392650  0.32851200  1
  O  O49  1  0.75930050  0.17273250  0.91494100  1
  O  O50  1  0.74226800  0.32450800  0.58853200  1
  O  O51  1  0.69468900  0.33778200  0.17348200  1
  O  O52  1  0.67011300  0.50309800  0.38491300  1
  O  O53  1  0.95014500  0.19963400  0.78598400  1
  O  O54  1  0.04985500  0.19963400  0.21401600  1
  O  O55  1  0.67124150  0.49371450  0.86129100  1
  O  O56  1  0.88306300  0.43551900  0.44882800  1
  O  O57  1  0.69277750  0.66392650  0.67148800  1
  O  O58  1  0.90196600  0.34904700  0.02813100  1
  O  O59  1  0.74069950  0.67273250  0.08505900  1
  O  O60  1  0.11693700  0.43551900  0.55117200  1
  O  O61  1  0.09803400  0.34904700  0.97186900  1
  O  O62  1  0.90257300  0.65136500  0.52912000  1
  O  O63  1  0.88431950  0.56573150  0.94967200  1
  O  O64  1  0.25773200  0.32450800  0.41146800  1
  O  O65  1  0.09742700  0.65136500  0.47088000  1
  O  O66  1  0.30531100  0.33778200  0.82651800  1
  O  O67  1  0.11568050  0.56573150  0.05032800  1
  O  O68  1  0.32988700  0.50309800  0.61508700  1
  O  O69  1  0.94944500  0.80449100  0.29098500  1
  O  O70  1  0.05055500  0.80449100  0.70901500  1
  O  O71  1  0.32875850  0.49371450  0.13870900  1
  O  O72  1  0.30722250  0.66392650  0.32851200  1
  O  O73  1  0.25930050  0.67273250  0.91494100  1
