# generated using pymatgen
data_CsTaCo(OF2)2
_symmetry_space_group_name_H-M   'P 1'
_cell_length_a   10.48453468
_cell_length_b   10.87493494
_cell_length_c   7.51971067
_cell_angle_alpha   90.00000000
_cell_angle_beta   134.18331421
_cell_angle_gamma   90.00000000
_symmetry_Int_Tables_number   1
_chemical_formula_structural   CsTaCo(OF2)2
_chemical_formula_sum   'Cs4 Ta4 Co4 O8 F16'
_cell_volume   614.84397552
_cell_formula_units_Z   4
loop_
 _symmetry_equiv_pos_site_id
 _symmetry_equiv_pos_as_xyz
  1  'x, y, z'
loop_
 _atom_site_type_symbol
 _atom_site_label
 _atom_site_symmetry_multiplicity
 _atom_site_fract_x
 _atom_site_fract_y
 _atom_site_fract_z
 _atom_site_occupancy
  Cs  Cs0  1  0.50000000  0.62713200  0.00000000  1
  Cs  Cs1  1  0.50000000  0.37992450  0.50000000  1
  Cs  Cs2  1  0.00000000  0.12713200  0.00000000  1
  Cs  Cs3  1  0.00000000  0.87992450  0.50000000  1
  Ta  Ta4  1  0.98325000  0.50881100  0.73943600  1
  Ta  Ta5  1  0.01675000  0.50881100  0.26056400  1
  Ta  Ta6  1  0.48325000  0.00881100  0.73943600  1
  Ta  Ta7  1  0.51675000  0.00881100  0.26056400  1
  Co  Co8  1  0.24872550  0.74930850  0.25150000  1
  Co  Co9  1  0.75127450  0.74930850  0.74850000  1
  Co  Co10  1  0.74872550  0.24930850  0.25150000  1
  Co  Co11  1  0.25127450  0.24930850  0.74850000  1
  O  O12  1  0.00000000  0.53712600  0.50000000  1
  O  O13  1  0.00000000  0.44493350  0.00000000  1
  O  O14  1  0.82230700  0.62957800  0.62999200  1
  O  O15  1  0.17769300  0.62957800  0.37000800  1
  O  O16  1  0.50000000  0.03712600  0.50000000  1
  O  O17  1  0.50000000  0.94493350  0.00000000  1
  O  O18  1  0.32230700  0.12957800  0.62999200  1
  O  O19  1  0.67769300  0.12957800  0.37000800  1
  F  F20  1  0.50000000  0.32124450  0.00000000  1
  F  F21  1  0.50000000  0.68562800  0.50000000  1
  F  F22  1  0.80254050  0.61554850  0.01389800  1
  F  F23  1  0.19745950  0.61554850  0.98610200  1
  F  F24  1  0.80196050  0.37839250  0.51561800  1
  F  F25  1  0.19803950  0.37839250  0.48438200  1
  F  F26  1  0.81736750  0.37006050  0.11764800  1
  F  F27  1  0.18263250  0.37006050  0.88235200  1
  F  F28  1  0.00000000  0.82124450  0.00000000  1
  F  F29  1  0.00000000  0.18562800  0.50000000  1
  F  F30  1  0.30254050  0.11554850  0.01389800  1
  F  F31  1  0.69745950  0.11554850  0.98610200  1
  F  F32  1  0.30196050  0.87839250  0.51561800  1
  F  F33  1  0.69803950  0.87839250  0.48438200  1
  F  F34  1  0.31736750  0.87006050  0.11764800  1
  F  F35  1  0.68263250  0.87006050  0.88235200  1
