# generated using pymatgen
data_LiCo5O3F5
_symmetry_space_group_name_H-M   'P 1'
_cell_length_a   10.62764200
_cell_length_b   6.05454600
_cell_length_c   6.10925001
_cell_angle_alpha   90.00000000
_cell_angle_beta   124.16982145
_cell_angle_gamma   90.00000000
_symmetry_Int_Tables_number   1
_chemical_formula_structural   LiCo5O3F5
_chemical_formula_sum   'Li2 Co10 O6 F10'
_cell_volume   325.24422097
_cell_formula_units_Z   2
loop_
 _symmetry_equiv_pos_site_id
 _symmetry_equiv_pos_as_xyz
  1  'x, y, z'
loop_
 _atom_site_type_symbol
 _atom_site_label
 _atom_site_symmetry_multiplicity
 _atom_site_fract_x
 _atom_site_fract_y
 _atom_site_fract_z
 _atom_site_occupancy
  Li  Li0  1  0.11475300  0.50000000  0.86732500  1
  Li  Li1  1  0.61475300  0.00000000  0.86732500  1
  Co  Co2  1  0.37222600  0.76332900  0.38527600  1
  Co  Co3  1  0.47636600  0.50000000  0.94125300  1
  Co  Co4  1  0.12382500  0.50000000  0.37752700  1
  Co  Co5  1  0.28204700  0.00000000  0.79228600  1
  Co  Co6  1  0.37222600  0.23667100  0.38527600  1
  Co  Co7  1  0.87222600  0.26332900  0.38527600  1
  Co  Co8  1  0.97636600  0.00000000  0.94125300  1
  Co  Co9  1  0.62382500  0.00000000  0.37752700  1
  Co  Co10  1  0.78204700  0.50000000  0.79228600  1
  Co  Co11  1  0.87222600  0.73667100  0.38527600  1
  O  O12  1  0.39935400  0.00000000  0.17883500  1
  O  O13  1  0.34986800  0.50000000  0.56282900  1
  O  O14  1  0.38931900  0.00000000  0.62790400  1
  O  O15  1  0.89935400  0.50000000  0.17883500  1
  O  O16  1  0.84986800  0.00000000  0.56282900  1
  O  O17  1  0.88931900  0.50000000  0.62790400  1
  F  F18  1  0.13057800  0.25927000  0.64452700  1
  F  F19  1  0.12280500  0.25515900  0.11212800  1
  F  F20  1  0.12280500  0.74484100  0.11212800  1
  F  F21  1  0.36324900  0.50000000  0.11817900  1
  F  F22  1  0.13057800  0.74073000  0.64452700  1
  F  F23  1  0.63057800  0.75927000  0.64452700  1
  F  F24  1  0.62280500  0.75515900  0.11212800  1
  F  F25  1  0.62280500  0.24484100  0.11212800  1
  F  F26  1  0.86324900  0.00000000  0.11817900  1
  F  F27  1  0.63057800  0.24073000  0.64452700  1
