# generated using pymatgen
data_LiFeSiO4
_symmetry_space_group_name_H-M   'P 1'
_cell_length_a   8.76516413
_cell_length_b   8.76516413
_cell_length_c   8.15492800
_cell_angle_alpha   90.00000000
_cell_angle_beta   90.00000000
_cell_angle_gamma   120.00000000
_symmetry_Int_Tables_number   1
_chemical_formula_structural   LiFeSiO4
_chemical_formula_sum   'Li6 Fe6 Si6 O24'
_cell_volume   542.58885457
_cell_formula_units_Z   6
loop_
 _symmetry_equiv_pos_site_id
 _symmetry_equiv_pos_as_xyz
  1  'x, y, z'
loop_
 _atom_site_type_symbol
 _atom_site_label
 _atom_site_symmetry_multiplicity
 _atom_site_fract_x
 _atom_site_fract_y
 _atom_site_fract_z
 _atom_site_occupancy
  Li  Li0  1  0.66666667  0.33333333  0.75296600  1
  Li  Li1  1  0.66666667  0.33333333  0.16164200  1
  Li  Li2  1  0.00000000  0.00000000  0.56837400  1
  Li  Li3  1  0.00000000  0.00000000  0.06837400  1
  Li  Li4  1  0.33333333  0.66666667  0.25296600  1
  Li  Li5  1  0.33333333  0.66666667  0.66164200  1
  Fe  Fe6  1  0.68638700  0.64230100  0.50744700  1
  Fe  Fe7  1  0.35769900  0.04408600  0.50744700  1
  Fe  Fe8  1  0.95591400  0.31361300  0.50744700  1
  Fe  Fe9  1  0.04408600  0.68638700  0.00744700  1
  Fe  Fe10  1  0.64230100  0.95591400  0.00744700  1
  Fe  Fe11  1  0.31361300  0.35769900  0.00744700  1
  Si  Si12  1  0.68844400  0.64711600  0.89586800  1
  Si  Si13  1  0.35288400  0.04132800  0.89586800  1
  Si  Si14  1  0.95867200  0.31155600  0.89586800  1
  Si  Si15  1  0.04132800  0.68844400  0.39586800  1
  Si  Si16  1  0.64711600  0.95867200  0.39586800  1
  Si  Si17  1  0.31155600  0.35288400  0.39586800  1
  O  O18  1  0.87508100  0.76458500  0.99593600  1
  O  O19  1  0.73268700  0.58546100  0.71927700  1
  O  O20  1  0.82627900  0.58671500  0.36816200  1
  O  O21  1  0.56176100  0.46261800  0.99716600  1
  O  O22  1  0.90085700  0.43823900  0.99716600  1
  O  O23  1  0.23541500  0.11049600  0.99593600  1
  O  O24  1  0.41328500  0.23956400  0.36816200  1
  O  O25  1  0.41453900  0.14722600  0.71927700  1
  O  O26  1  0.11049600  0.87508100  0.49593600  1
  O  O27  1  0.85277400  0.26731300  0.71927700  1
  O  O28  1  0.76043600  0.17372100  0.36816200  1
  O  O29  1  0.53738200  0.09914300  0.99716600  1
  O  O30  1  0.46261800  0.90085700  0.49716600  1
  O  O31  1  0.23956400  0.82627900  0.86816200  1
  O  O32  1  0.14722600  0.73268700  0.21927700  1
  O  O33  1  0.88950400  0.12491900  0.99593600  1
  O  O34  1  0.58546100  0.85277400  0.21927700  1
  O  O35  1  0.58671500  0.76043600  0.86816200  1
  O  O36  1  0.76458500  0.88950400  0.49593600  1
  O  O37  1  0.09914300  0.56176100  0.49716600  1
  O  O38  1  0.43823900  0.53738200  0.49716600  1
  O  O39  1  0.17372100  0.41328500  0.86816200  1
  O  O40  1  0.26731300  0.41453900  0.21927700  1
  O  O41  1  0.12491900  0.23541500  0.49593600  1
