# generated using pymatgen
data_Mn3Co2Te3O16
_symmetry_space_group_name_H-M   'P 1'
_cell_length_a   10.70585800
_cell_length_b   6.07518400
_cell_length_c   9.20050301
_cell_angle_alpha   90.00000000
_cell_angle_beta   90.76122994
_cell_angle_gamma   90.00000000
_symmetry_Int_Tables_number   1
_chemical_formula_structural   Mn3Co2Te3O16
_chemical_formula_sum   'Mn6 Co4 Te6 O32'
_cell_volume   598.34842912
_cell_formula_units_Z   2
loop_
 _symmetry_equiv_pos_site_id
 _symmetry_equiv_pos_as_xyz
  1  'x, y, z'
loop_
 _atom_site_type_symbol
 _atom_site_label
 _atom_site_symmetry_multiplicity
 _atom_site_fract_x
 _atom_site_fract_y
 _atom_site_fract_z
 _atom_site_occupancy
  Mn  Mn0  1  0.83232600  0.00000000  0.21345900  1
  Mn  Mn1  1  0.91474700  0.74997700  0.71059000  1
  Mn  Mn2  1  0.91474700  0.25002300  0.71059000  1
  Mn  Mn3  1  0.33232600  0.50000000  0.21345900  1
  Mn  Mn4  1  0.41474700  0.24997700  0.71059000  1
  Mn  Mn5  1  0.41474700  0.75002300  0.71059000  1
  Co  Co6  1  0.67533100  0.00000000  0.51500700  1
  Co  Co7  1  0.84626900  0.50000000  0.98200400  1
  Co  Co8  1  0.17533100  0.50000000  0.51500700  1
  Co  Co9  1  0.34626900  0.00000000  0.98200400  1
  Te  Te10  1  0.58316000  0.24829900  0.21264700  1
  Te  Te11  1  0.58316000  0.75170100  0.21264700  1
  Te  Te12  1  0.66662400  0.50000000  0.71303500  1
  Te  Te13  1  0.08316000  0.74829900  0.21264700  1
  Te  Te14  1  0.08316000  0.25170100  0.21264700  1
  Te  Te15  1  0.16662400  0.00000000  0.71303500  1
  O  O16  1  0.58413750  0.26138550  0.60392300  1
  O  O17  1  0.51812900  0.00000000  0.33598300  1
  O  O18  1  0.64668200  0.00000000  0.08734200  1
  O  O19  1  0.51641000  0.50000000  0.32909700  1
  O  O20  1  0.50647700  0.50000000  0.81927200  1
  O  O21  1  0.58413750  0.73861450  0.60392300  1
  O  O22  1  0.73269250  0.22430550  0.32562900  1
  O  O23  1  0.73269250  0.77569450  0.32562900  1
  O  O24  1  0.65956200  0.50000000  0.09943600  1
  O  O25  1  0.84350500  0.00000000  0.60802500  1
  O  O26  1  0.75964800  0.71924100  0.83454500  1
  O  O27  1  0.75964800  0.28075900  0.83454500  1
  O  O28  1  0.82398900  0.50000000  0.59768400  1
  O  O29  1  0.92622250  0.75562250  0.10929600  1
  O  O30  1  0.97419400  0.50000000  0.82158900  1
  O  O31  1  0.92622250  0.24437750  0.10929600  1
  O  O32  1  0.08413750  0.76138550  0.60392300  1
  O  O33  1  0.01812900  0.50000000  0.33598300  1
  O  O34  1  0.14668200  0.50000000  0.08734200  1
  O  O35  1  0.01641000  0.00000000  0.32909700  1
  O  O36  1  0.00647700  0.00000000  0.81927200  1
  O  O37  1  0.08413750  0.23861450  0.60392300  1
  O  O38  1  0.23269250  0.72430550  0.32562900  1
  O  O39  1  0.23269250  0.27569450  0.32562900  1
  O  O40  1  0.15956200  0.00000000  0.09943600  1
  O  O41  1  0.34350500  0.50000000  0.60802500  1
  O  O42  1  0.25964800  0.21924100  0.83454500  1
  O  O43  1  0.25964800  0.78075900  0.83454500  1
  O  O44  1  0.32398900  0.00000000  0.59768400  1
  O  O45  1  0.42622250  0.25562250  0.10929600  1
  O  O46  1  0.47419400  0.00000000  0.82158900  1
  O  O47  1  0.42622250  0.74437750  0.10929600  1
