# generated using pymatgen
data_Li4Ti3Fe2Sn3O16
_symmetry_space_group_name_H-M   'P 1'
_cell_length_a   10.65836819
_cell_length_b   6.11680952
_cell_length_c   9.95173869
_cell_angle_alpha   90.00000000
_cell_angle_beta   90.43984642
_cell_angle_gamma   90.00000000
_symmetry_Int_Tables_number   1
_chemical_formula_structural   Li4Ti3Fe2Sn3O16
_chemical_formula_sum   'Li8 Ti6 Fe4 Sn6 O32'
_cell_volume   648.78655561
_cell_formula_units_Z   2
loop_
 _symmetry_equiv_pos_site_id
 _symmetry_equiv_pos_as_xyz
  1  'x, y, z'
loop_
 _atom_site_type_symbol
 _atom_site_label
 _atom_site_symmetry_multiplicity
 _atom_site_fract_x
 _atom_site_fract_y
 _atom_site_fract_z
 _atom_site_occupancy
  Li  Li0  1  0.16955325  0.50000000  0.11345000  1
  Li  Li1  1  0.48945775  0.50000000  0.00365100  1
  Li  Li2  1  0.49400325  0.50000000  0.49867900  1
  Li  Li3  1  0.33576850  0.00000000  0.60788000  1
  Li  Li4  1  0.66955325  0.00000000  0.11345000  1
  Li  Li5  1  0.98945775  0.00000000  0.00365100  1
  Li  Li6  1  0.99400325  0.00000000  0.49867900  1
  Li  Li7  1  0.83576850  0.50000000  0.60788000  1
  Ti  Ti8  1  0.33114825  0.50000000  0.78194300  1
  Ti  Ti9  1  0.41678750  0.75287550  0.28496100  1
  Ti  Ti10  1  0.41678750  0.24712450  0.28496100  1
  Ti  Ti11  1  0.83114825  0.00000000  0.78194300  1
  Ti  Ti12  1  0.91678750  0.25287550  0.28496100  1
  Ti  Ti13  1  0.91678750  0.74712450  0.28496100  1
  Fe  Fe14  1  0.16819850  0.50000000  0.50319100  1
  Fe  Fe15  1  0.33667050  0.00000000  0.00771100  1
  Fe  Fe16  1  0.66819850  0.00000000  0.50319100  1
  Fe  Fe17  1  0.83667050  0.50000000  0.00771100  1
  Sn  Sn18  1  0.17044375  0.00000000  0.28624300  1
  Sn  Sn19  1  0.08404800  0.74556400  0.78614400  1
  Sn  Sn20  1  0.08404800  0.25443600  0.78614400  1
  Sn  Sn21  1  0.67044375  0.50000000  0.28624300  1
  Sn  Sn22  1  0.58404800  0.24556400  0.78614400  1
  Sn  Sn23  1  0.58404800  0.75443600  0.78614400  1
  O  O24  1  0.01617800  0.50000000  0.66433500  1
  O  O25  1  0.17448275  0.50000000  0.90109600  1
  O  O26  1  0.49448050  0.50000000  0.68032800  1
  O  O27  1  0.49509975  0.50000000  0.18490000  1
  O  O28  1  0.15530575  0.00000000  0.90302300  1
  O  O29  1  0.34509800  0.50000000  0.38720200  1
  O  O30  1  0.34389950  0.00000000  0.39645800  1
  O  O31  1  0.48232600  0.00000000  0.17598400  1
  O  O32  1  0.07547900  0.76024200  0.39601000  1
  O  O33  1  0.07547900  0.23975800  0.39601000  1
  O  O34  1  0.24777700  0.72097150  0.66943000  1
  O  O35  1  0.24777700  0.27902850  0.66943000  1
  O  O36  1  0.26490950  0.23084950  0.17154300  1
  O  O37  1  0.26490950  0.76915050  0.17154300  1
  O  O38  1  0.41553975  0.26649925  0.89435000  1
  O  O39  1  0.41553975  0.73350075  0.89435000  1
  O  O40  1  0.51617800  0.00000000  0.66433500  1
  O  O41  1  0.67448275  0.00000000  0.90109600  1
  O  O42  1  0.99448050  0.00000000  0.68032800  1
  O  O43  1  0.99509975  0.00000000  0.18490000  1
  O  O44  1  0.65530575  0.50000000  0.90302300  1
  O  O45  1  0.84509800  0.00000000  0.38720200  1
  O  O46  1  0.84389950  0.50000000  0.39645800  1
  O  O47  1  0.98232600  0.50000000  0.17598400  1
  O  O48  1  0.57547900  0.26024200  0.39601000  1
  O  O49  1  0.57547900  0.73975800  0.39601000  1
  O  O50  1  0.74777700  0.22097150  0.66943000  1
  O  O51  1  0.74777700  0.77902850  0.66943000  1
  O  O52  1  0.76490950  0.73084950  0.17154300  1
  O  O53  1  0.76490950  0.26915050  0.17154300  1
  O  O54  1  0.91553975  0.76649925  0.89435000  1
  O  O55  1  0.91553975  0.23350075  0.89435000  1
