# generated using pymatgen
data_Li8BiO6
_symmetry_space_group_name_H-M   'P 1'
_cell_length_a   5.65177438
_cell_length_b   5.65177438
_cell_length_c   16.15214957
_cell_angle_alpha   90.00000000
_cell_angle_beta   90.00000000
_cell_angle_gamma   120.00000000
_symmetry_Int_Tables_number   1
_chemical_formula_structural   Li8BiO6
_chemical_formula_sum   'Li24 Bi3 O18'
_cell_volume   446.81792942
_cell_formula_units_Z   3
loop_
 _symmetry_equiv_pos_site_id
 _symmetry_equiv_pos_as_xyz
  1  'x, y, z'
loop_
 _atom_site_type_symbol
 _atom_site_label
 _atom_site_symmetry_multiplicity
 _atom_site_fract_x
 _atom_site_fract_y
 _atom_site_fract_z
 _atom_site_occupancy
  Li  Li0  1  0.29932067  0.98425733  0.21145233  1
  Li  Li1  1  0.65092400  0.01827000  0.12188100  1
  Li  Li2  1  0.98173000  0.63265400  0.12188100  1
  Li  Li3  1  0.33333333  0.66666667  0.31770767  1
  Li  Li4  1  0.33333333  0.66666667  0.01562567  1
  Li  Li5  1  0.68493667  0.70067933  0.21145233  1
  Li  Li6  1  0.01574267  0.31506333  0.21145233  1
  Li  Li7  1  0.36734600  0.34907600  0.12188100  1
  Li  Li8  1  0.96598733  0.31759067  0.54478567  1
  Li  Li9  1  0.31759067  0.35160333  0.45521433  1
  Li  Li10  1  0.64839667  0.96598733  0.45521433  1
  Li  Li11  1  0.00000000  0.00000000  0.65104100  1
  Li  Li12  1  0.00000000  0.00000000  0.34895900  1
  Li  Li13  1  0.35160333  0.03401267  0.54478567  1
  Li  Li14  1  0.68240933  0.64839667  0.54478567  1
  Li  Li15  1  0.03401267  0.68240933  0.45521433  1
  Li  Li16  1  0.63265400  0.65092400  0.87811900  1
  Li  Li17  1  0.98425733  0.68493667  0.78854767  1
  Li  Li18  1  0.31506333  0.29932067  0.78854767  1
  Li  Li19  1  0.66666667  0.33333333  0.98437433  1
  Li  Li20  1  0.66666667  0.33333333  0.68229233  1
  Li  Li21  1  0.01827000  0.36734600  0.87811900  1
  Li  Li22  1  0.34907600  0.98173000  0.87811900  1
  Li  Li23  1  0.70067933  0.01574267  0.78854767  1
  Bi  Bi24  1  0.00000000  0.00000000  0.00000000  1
  Bi  Bi25  1  0.66666667  0.33333333  0.33333333  1
  Bi  Bi26  1  0.33333333  0.66666667  0.66666667  1
  O  O27  1  0.31374867  0.98606233  0.08515433  1
  O  O28  1  0.65272900  0.00564700  0.24817900  1
  O  O29  1  0.99435300  0.64708200  0.24817900  1
  O  O30  1  0.67231367  0.68625133  0.08515433  1
  O  O31  1  0.01393767  0.32768633  0.08515433  1
  O  O32  1  0.35291800  0.34727100  0.24817900  1
  O  O33  1  0.98041533  0.31939567  0.41848767  1
  O  O34  1  0.31939567  0.33898033  0.58151233  1
  O  O35  1  0.66101967  0.98041533  0.58151233  1
  O  O36  1  0.33898033  0.01958467  0.41848767  1
  O  O37  1  0.68060433  0.66101967  0.41848767  1
  O  O38  1  0.01958467  0.68060433  0.58151233  1
  O  O39  1  0.64708200  0.65272900  0.75182100  1
  O  O40  1  0.98606233  0.67231367  0.91484567  1
  O  O41  1  0.32768633  0.31374867  0.91484567  1
  O  O42  1  0.00564700  0.35291800  0.75182100  1
  O  O43  1  0.34727100  0.99435300  0.75182100  1
  O  O44  1  0.68625133  0.01393767  0.91484567  1
