# generated using pymatgen
data_Li2Ti13O22
_symmetry_space_group_name_H-M   'P 1'
_cell_length_a   10.09297600
_cell_length_b   11.57835000
_cell_length_c   14.05668100
_cell_angle_alpha   90.00000000
_cell_angle_beta   90.00000000
_cell_angle_gamma   90.00000000
_symmetry_Int_Tables_number   1
_chemical_formula_structural   Li2Ti13O22
_chemical_formula_sum   'Li8 Ti52 O88'
_cell_volume   1642.66386353
_cell_formula_units_Z   4
loop_
 _symmetry_equiv_pos_site_id
 _symmetry_equiv_pos_as_xyz
  1  'x, y, z'
loop_
 _atom_site_type_symbol
 _atom_site_label
 _atom_site_symmetry_multiplicity
 _atom_site_fract_x
 _atom_site_fract_y
 _atom_site_fract_z
 _atom_site_occupancy
  Li  Li0  1  0.66588900  0.00000000  0.91281900  1
  Li  Li1  1  0.16588900  0.00000000  0.58718100  1
  Li  Li2  1  0.83411100  0.00000000  0.41281900  1
  Li  Li3  1  0.33411100  0.00000000  0.08718100  1
  Li  Li4  1  0.16588900  0.50000000  0.91281900  1
  Li  Li5  1  0.66588900  0.50000000  0.58718100  1
  Li  Li6  1  0.33411100  0.50000000  0.41281900  1
  Li  Li7  1  0.83411100  0.50000000  0.08718100  1
  Ti  Ti8  1  0.42770850  0.62881650  0.17764800  1
  Ti  Ti9  1  0.57229150  0.62881650  0.82235200  1
  Ti  Ti10  1  0.50000000  0.73838200  0.50000000  1
  Ti  Ti11  1  0.32070800  0.75331400  0.65141100  1
  Ti  Ti12  1  0.67929200  0.75331400  0.34858900  1
  Ti  Ti13  1  0.32070800  0.74668600  0.84858900  1
  Ti  Ti14  1  0.67929200  0.74668600  0.15141100  1
  Ti  Ti15  1  0.50000000  0.76161800  0.00000000  1
  Ti  Ti16  1  0.42770850  0.87118350  0.32235200  1
  Ti  Ti17  1  0.57229150  0.87118350  0.67764800  1
  Ti  Ti18  1  0.00000000  0.00000000  0.00000000  1
  Ti  Ti19  1  0.33753600  0.00000000  0.83864500  1
  Ti  Ti20  1  0.83753600  0.00000000  0.66135500  1
  Ti  Ti21  1  0.50000000  0.00000000  0.50000000  1
  Ti  Ti22  1  0.66246400  0.00000000  0.16135500  1
  Ti  Ti23  1  0.16246400  0.00000000  0.33864500  1
  Ti  Ti24  1  0.57229150  0.12881650  0.67764800  1
  Ti  Ti25  1  0.42770850  0.12881650  0.32235200  1
  Ti  Ti26  1  0.50000000  0.23838200  0.00000000  1
  Ti  Ti27  1  0.32070800  0.25331400  0.84858900  1
  Ti  Ti28  1  0.67929200  0.25331400  0.15141100  1
  Ti  Ti29  1  0.67929200  0.24668600  0.34858900  1
  Ti  Ti30  1  0.32070800  0.24668600  0.65141100  1
  Ti  Ti31  1  0.50000000  0.26161800  0.50000000  1
  Ti  Ti32  1  0.57229150  0.37118350  0.82235200  1
  Ti  Ti33  1  0.42770850  0.37118350  0.17764800  1
  Ti  Ti34  1  0.92770850  0.12881650  0.17764800  1
  Ti  Ti35  1  0.07229150  0.12881650  0.82235200  1
  Ti  Ti36  1  0.00000000  0.23838200  0.50000000  1
  Ti  Ti37  1  0.82070800  0.25331400  0.65141100  1
  Ti  Ti38  1  0.17929200  0.25331400  0.34858900  1
  Ti  Ti39  1  0.82070800  0.24668600  0.84858900  1
  Ti  Ti40  1  0.17929200  0.24668600  0.15141100  1
  Ti  Ti41  1  0.00000000  0.26161800  0.00000000  1
  Ti  Ti42  1  0.92770850  0.37118350  0.32235200  1
  Ti  Ti43  1  0.07229150  0.37118350  0.67764800  1
  Ti  Ti44  1  0.50000000  0.50000000  0.00000000  1
  Ti  Ti45  1  0.83753600  0.50000000  0.83864500  1
  Ti  Ti46  1  0.33753600  0.50000000  0.66135500  1
  Ti  Ti47  1  0.00000000  0.50000000  0.50000000  1
  Ti  Ti48  1  0.16246400  0.50000000  0.16135500  1
  Ti  Ti49  1  0.66246400  0.50000000  0.33864500  1
  Ti  Ti50  1  0.07229150  0.62881650  0.67764800  1
  Ti  Ti51  1  0.92770850  0.62881650  0.32235200  1
  Ti  Ti52  1  0.00000000  0.73838200  0.00000000  1
  Ti  Ti53  1  0.82070800  0.75331400  0.84858900  1
  Ti  Ti54  1  0.17929200  0.75331400  0.15141100  1
  Ti  Ti55  1  0.17929200  0.74668600  0.34858900  1
  Ti  Ti56  1  0.82070800  0.74668600  0.65141100  1
  Ti  Ti57  1  0.00000000  0.76161800  0.50000000  1
  Ti  Ti58  1  0.07229150  0.87118350  0.82235200  1
  Ti  Ti59  1  0.92770850  0.87118350  0.17764800  1
  O  O60  1  0.40358500  0.62148100  0.57866800  1
  O  O61  1  0.59641500  0.62148100  0.42133200  1
  O  O62  1  0.41288700  0.62417000  0.91968000  1
  O  O63  1  0.58711300  0.62417000  0.08032000  1
  O  O64  1  0.35042950  0.75135450  0.09068700  1
  O  O65  1  0.64957050  0.75135450  0.90931300  1
  O  O66  1  0.47480800  0.75000000  0.75000000  1
  O  O67  1  0.52519200  0.75000000  0.25000000  1
  O  O68  1  0.35042950  0.74864550  0.40931300  1
  O  O69  1  0.64957050  0.74864550  0.59068700  1
  O  O70  1  0.24696700  0.87113200  0.75432300  1
  O  O71  1  0.25303300  0.87113200  0.25432300  1
  O  O72  1  0.74696700  0.87113200  0.74567700  1
  O  O73  1  0.75303300  0.87113200  0.24567700  1
  O  O74  1  0.41288700  0.87583000  0.58032000  1
  O  O75  1  0.58711300  0.87583000  0.41968000  1
  O  O76  1  0.40358500  0.87851900  0.92133200  1
  O  O77  1  0.59641500  0.87851900  0.07866800  1
  O  O78  1  0.15550200  0.00000000  0.90439400  1
  O  O79  1  0.49655000  0.00000000  0.75504500  1
  O  O80  1  0.99655000  0.00000000  0.74495500  1
  O  O81  1  0.65550200  0.00000000  0.59560600  1
  O  O82  1  0.34449800  0.00000000  0.40439400  1
  O  O83  1  0.50345000  0.00000000  0.24495500  1
  O  O84  1  0.84449800  0.00000000  0.09560600  1
  O  O85  1  0.00345000  0.00000000  0.25504500  1
  O  O86  1  0.40358500  0.12148100  0.92133200  1
  O  O87  1  0.59641500  0.12148100  0.07866800  1
  O  O88  1  0.41288700  0.12417000  0.58032000  1
  O  O89  1  0.58711300  0.12417000  0.41968000  1
  O  O90  1  0.74696700  0.12886800  0.74567700  1
  O  O91  1  0.75303300  0.12886800  0.24567700  1
  O  O92  1  0.24696700  0.12886800  0.75432300  1
  O  O93  1  0.25303300  0.12886800  0.25432300  1
  O  O94  1  0.64957050  0.25135450  0.59068700  1
  O  O95  1  0.35042950  0.25135450  0.40931300  1
  O  O96  1  0.47480800  0.25000000  0.75000000  1
  O  O97  1  0.52519200  0.25000000  0.25000000  1
  O  O98  1  0.64957050  0.24864550  0.90931300  1
  O  O99  1  0.35042950  0.24864550  0.09068700  1
  O  O100  1  0.41288700  0.37583000  0.91968000  1
  O  O101  1  0.58711300  0.37583000  0.08032000  1
  O  O102  1  0.40358500  0.37851900  0.57866800  1
  O  O103  1  0.59641500  0.37851900  0.42133200  1
  O  O104  1  0.90358500  0.12148100  0.57866800  1
  O  O105  1  0.09641500  0.12148100  0.42133200  1
  O  O106  1  0.91288700  0.12417000  0.91968000  1
  O  O107  1  0.08711300  0.12417000  0.08032000  1
  O  O108  1  0.85042950  0.25135450  0.09068700  1
  O  O109  1  0.14957050  0.25135450  0.90931300  1
  O  O110  1  0.97480800  0.25000000  0.75000000  1
  O  O111  1  0.02519200  0.25000000  0.25000000  1
  O  O112  1  0.85042950  0.24864550  0.40931300  1
  O  O113  1  0.14957050  0.24864550  0.59068700  1
  O  O114  1  0.74696700  0.37113200  0.75432300  1
  O  O115  1  0.75303300  0.37113200  0.25432300  1
  O  O116  1  0.24696700  0.37113200  0.74567700  1
  O  O117  1  0.25303300  0.37113200  0.24567700  1
  O  O118  1  0.91288700  0.37583000  0.58032000  1
  O  O119  1  0.08711300  0.37583000  0.41968000  1
  O  O120  1  0.90358500  0.37851900  0.92133200  1
  O  O121  1  0.09641500  0.37851900  0.07866800  1
  O  O122  1  0.65550200  0.50000000  0.90439400  1
  O  O123  1  0.99655000  0.50000000  0.75504500  1
  O  O124  1  0.49655000  0.50000000  0.74495500  1
  O  O125  1  0.15550200  0.50000000  0.59560600  1
  O  O126  1  0.84449800  0.50000000  0.40439400  1
  O  O127  1  0.00345000  0.50000000  0.24495500  1
  O  O128  1  0.34449800  0.50000000  0.09560600  1
  O  O129  1  0.50345000  0.50000000  0.25504500  1
  O  O130  1  0.90358500  0.62148100  0.92133200  1
  O  O131  1  0.09641500  0.62148100  0.07866800  1
  O  O132  1  0.91288700  0.62417000  0.58032000  1
  O  O133  1  0.08711300  0.62417000  0.41968000  1
  O  O134  1  0.24696700  0.62886800  0.74567700  1
  O  O135  1  0.25303300  0.62886800  0.24567700  1
  O  O136  1  0.74696700  0.62886800  0.75432300  1
  O  O137  1  0.75303300  0.62886800  0.25432300  1
  O  O138  1  0.14957050  0.75135450  0.59068700  1
  O  O139  1  0.85042950  0.75135450  0.40931300  1
  O  O140  1  0.97480800  0.75000000  0.75000000  1
  O  O141  1  0.02519200  0.75000000  0.25000000  1
  O  O142  1  0.14957050  0.74864550  0.90931300  1
  O  O143  1  0.85042950  0.74864550  0.09068700  1
  O  O144  1  0.91288700  0.87583000  0.91968000  1
  O  O145  1  0.08711300  0.87583000  0.08032000  1
  O  O146  1  0.90358500  0.87851900  0.57866800  1
  O  O147  1  0.09641500  0.87851900  0.42133200  1
