# generated using pymatgen
data_Fe3Sb(PO4)6
_symmetry_space_group_name_H-M   'P 1'
_cell_length_a   8.70780781
_cell_length_b   8.70780781
_cell_length_c   22.15034192
_cell_angle_alpha   90.00000000
_cell_angle_beta   90.00000000
_cell_angle_gamma   120.00000000
_symmetry_Int_Tables_number   1
_chemical_formula_structural   Fe3Sb(PO4)6
_chemical_formula_sum   'Fe9 Sb3 P18 O72'
_cell_volume   1454.55027557
_cell_formula_units_Z   3
loop_
 _symmetry_equiv_pos_site_id
 _symmetry_equiv_pos_as_xyz
  1  'x, y, z'
loop_
 _atom_site_type_symbol
 _atom_site_label
 _atom_site_symmetry_multiplicity
 _atom_site_fract_x
 _atom_site_fract_y
 _atom_site_fract_z
 _atom_site_occupancy
  Fe  Fe0  1  0.00000000  0.00000000  0.14318700  1
  Fe  Fe1  1  0.33333333  0.66666667  0.02308867  1
  Fe  Fe2  1  0.33333333  0.66666667  0.30931167  1
  Fe  Fe3  1  0.66666667  0.33333333  0.47652033  1
  Fe  Fe4  1  0.00000000  0.00000000  0.35642200  1
  Fe  Fe5  1  0.00000000  0.00000000  0.64264500  1
  Fe  Fe6  1  0.33333333  0.66666667  0.80985367  1
  Fe  Fe7  1  0.66666667  0.33333333  0.68975533  1
  Fe  Fe8  1  0.66666667  0.33333333  0.97597833  1
  Sb  Sb9  1  0.66666667  0.33333333  0.18925833  1
  Sb  Sb10  1  0.33333333  0.66666667  0.52259167  1
  Sb  Sb11  1  0.00000000  0.00000000  0.85592500  1
  P  P12  1  0.38078967  0.04709733  0.08287133  1
  P  P13  1  0.66630767  0.61921033  0.08287133  1
  P  P14  1  0.95290267  0.33369233  0.08287133  1
  P  P15  1  0.71463933  0.00090667  0.24972467  1
  P  P16  1  0.99909333  0.71373267  0.24972467  1
  P  P17  1  0.28626733  0.28536067  0.24972467  1
  P  P18  1  0.04745633  0.38043067  0.41620467  1
  P  P19  1  0.33297433  0.95254367  0.41620467  1
  P  P20  1  0.61956933  0.66702567  0.41620467  1
  P  P21  1  0.38130600  0.33424000  0.58305800  1
  P  P22  1  0.66576000  0.04706600  0.58305800  1
  P  P23  1  0.95293400  0.61869400  0.58305800  1
  P  P24  1  0.71412300  0.71376400  0.74953800  1
  P  P25  1  0.99964100  0.28587700  0.74953800  1
  P  P26  1  0.28623600  0.00035900  0.74953800  1
  P  P27  1  0.04797267  0.66757333  0.91639133  1
  P  P28  1  0.33242667  0.38039933  0.91639133  1
  P  P29  1  0.61960067  0.95202733  0.91639133  1
  O  O30  1  0.20349733  0.17147367  0.30589967  1
  O  O31  1  0.82852633  0.03202367  0.30589967  1
  O  O32  1  0.19670500  0.02764600  0.09019100  1
  O  O33  1  0.96797633  0.79650267  0.30589967  1
  O  O34  1  0.36340167  0.86429633  0.07616333  1
  O  O35  1  0.49565600  0.12664600  0.14123200  1
  O  O36  1  0.83094100  0.80329500  0.09019100  1
  O  O37  1  0.50089467  0.63659833  0.07616333  1
  O  O38  1  0.13570367  0.49910533  0.07616333  1
  O  O39  1  0.79713800  0.97187200  0.19277900  1
  O  O40  1  0.69496467  0.16980533  0.24417933  1
  O  O41  1  0.02812800  0.82526600  0.19277900  1
  O  O42  1  0.63099000  0.50434400  0.14123200  1
  O  O43  1  0.97235400  0.16905900  0.09019100  1
  O  O44  1  0.87335400  0.36901000  0.14123200  1
  O  O45  1  0.53065667  0.83584833  0.25662133  1
  O  O46  1  0.16415167  0.69480833  0.25662133  1
  O  O47  1  0.83019467  0.52515933  0.24417933  1
  O  O48  1  0.17473400  0.20286200  0.19277900  1
  O  O49  1  0.30519167  0.46934333  0.25662133  1
  O  O50  1  0.69947933  0.53410167  0.02761167  1
  O  O51  1  0.47484067  0.30503533  0.24417933  1
  O  O52  1  0.83462233  0.30052067  0.02761167  1
  O  O53  1  0.46589833  0.16537767  0.02761167  1
  O  O54  1  0.87016400  0.50480700  0.63923300  1
  O  O55  1  0.49519300  0.36535700  0.63923300  1
  O  O56  1  0.86337167  0.36097933  0.42352433  1
  O  O57  1  0.63464300  0.12983600  0.63923300  1
  O  O58  1  0.03006833  0.19762967  0.40949667  1
  O  O59  1  0.16232267  0.45997933  0.47456533  1
  O  O60  1  0.49760767  0.13662833  0.42352433  1
  O  O61  1  0.16756133  0.96993167  0.40949667  1
  O  O62  1  0.80237033  0.83243867  0.40949667  1
  O  O63  1  0.46380467  0.30520533  0.52611233  1
  O  O64  1  0.36163133  0.50313867  0.57751267  1
  O  O65  1  0.69479467  0.15859933  0.52611233  1
  O  O66  1  0.29765667  0.83767733  0.47456533  1
  O  O67  1  0.63902067  0.50239233  0.42352433  1
  O  O68  1  0.54002067  0.70234333  0.47456533  1
  O  O69  1  0.19732333  0.16918167  0.58995467  1
  O  O70  1  0.83081833  0.02814167  0.58995467  1
  O  O71  1  0.49686133  0.85849267  0.57751267  1
  O  O72  1  0.84140067  0.53619533  0.52611233  1
  O  O73  1  0.97185833  0.80267667  0.58995467  1
  O  O74  1  0.36614600  0.86743500  0.36094500  1
  O  O75  1  0.14150733  0.63836867  0.57751267  1
  O  O76  1  0.50128900  0.63385400  0.36094500  1
  O  O77  1  0.13256500  0.49871100  0.36094500  1
  O  O78  1  0.53683067  0.83814033  0.97256633  1
  O  O79  1  0.16185967  0.69869033  0.97256633  1
  O  O80  1  0.53003833  0.69431267  0.75685767  1
  O  O81  1  0.30130967  0.46316933  0.97256633  1
  O  O82  1  0.69673500  0.53096300  0.74283000  1
  O  O83  1  0.82898933  0.79331267  0.80789867  1
  O  O84  1  0.16427433  0.46996167  0.75685767  1
  O  O85  1  0.83422800  0.30326500  0.74283000  1
  O  O86  1  0.46903700  0.16577200  0.74283000  1
  O  O87  1  0.13047133  0.63853867  0.85944567  1
  O  O88  1  0.02829800  0.83647200  0.91084600  1
  O  O89  1  0.36146133  0.49193267  0.85944567  1
  O  O90  1  0.96432333  0.17101067  0.80789867  1
  O  O91  1  0.30568733  0.83572567  0.75685767  1
  O  O92  1  0.20668733  0.03567667  0.80789867  1
  O  O93  1  0.86399000  0.50251500  0.92328800  1
  O  O94  1  0.49748500  0.36147500  0.92328800  1
  O  O95  1  0.16352800  0.19182600  0.91084600  1
  O  O96  1  0.50806733  0.86952867  0.85944567  1
  O  O97  1  0.63852500  0.13601000  0.92328800  1
  O  O98  1  0.03281267  0.20076833  0.69427833  1
  O  O99  1  0.80817400  0.97170200  0.91084600  1
  O  O100  1  0.16795567  0.96718733  0.69427833  1
  O  O101  1  0.79923167  0.83204433  0.69427833  1
