# generated using pymatgen
data_Mn2V3Fe(PO4)6
_symmetry_space_group_name_H-M   'P 1'
_cell_length_a   8.63826985
_cell_length_b   8.63826985
_cell_length_c   21.14040644
_cell_angle_alpha   90.00000000
_cell_angle_beta   90.00000000
_cell_angle_gamma   120.00000000
_symmetry_Int_Tables_number   1
_chemical_formula_structural   Mn2V3Fe(PO4)6
_chemical_formula_sum   'Mn6 V9 Fe3 P18 O72'
_cell_volume   1366.14720578
_cell_formula_units_Z   3
loop_
 _symmetry_equiv_pos_site_id
 _symmetry_equiv_pos_as_xyz
  1  'x, y, z'
loop_
 _atom_site_type_symbol
 _atom_site_label
 _atom_site_symmetry_multiplicity
 _atom_site_fract_x
 _atom_site_fract_y
 _atom_site_fract_z
 _atom_site_occupancy
  Mn  Mn0  1  0.33333333  0.66666667  0.66544767  1
  Mn  Mn1  1  0.33333333  0.66666667  0.16635167  1
  Mn  Mn2  1  0.00000000  0.00000000  0.99878100  1
  Mn  Mn3  1  0.00000000  0.00000000  0.49968500  1
  Mn  Mn4  1  0.66666667  0.33333333  0.33211433  1
  Mn  Mn5  1  0.66666667  0.33333333  0.83301833  1
  V  V6  1  0.33333333  0.66666667  0.02226367  1
  V  V7  1  0.33333333  0.66666667  0.81017667  1
  V  V8  1  0.33333333  0.66666667  0.31083667  1
  V  V9  1  0.00000000  0.00000000  0.35559700  1
  V  V10  1  0.00000000  0.00000000  0.14351000  1
  V  V11  1  0.00000000  0.00000000  0.64417000  1
  V  V12  1  0.66666667  0.33333333  0.68893033  1
  V  V13  1  0.66666667  0.33333333  0.47684333  1
  V  V14  1  0.66666667  0.33333333  0.97750333  1
  Fe  Fe15  1  0.33333333  0.66666667  0.52135767  1
  Fe  Fe16  1  0.00000000  0.00000000  0.85469100  1
  Fe  Fe17  1  0.66666667  0.33333333  0.18802433  1
  P  P18  1  0.37388633  0.04094167  0.08332267  1
  P  P19  1  0.66705533  0.62611367  0.08332267  1
  P  P20  1  0.95905833  0.33294467  0.08332267  1
  P  P21  1  0.70867900  0.99967600  0.25032400  1
  P  P22  1  0.00032400  0.70900300  0.25032400  1
  P  P23  1  0.29099700  0.29132100  0.25032400  1
  P  P24  1  0.04055300  0.37427500  0.41665600  1
  P  P25  1  0.33372200  0.95944700  0.41665600  1
  P  P26  1  0.62572500  0.66627800  0.41665600  1
  P  P27  1  0.37534567  0.33300933  0.58365733  1
  P  P28  1  0.66699067  0.04233633  0.58365733  1
  P  P29  1  0.95766367  0.62465433  0.58365733  1
  P  P30  1  0.70721967  0.70760833  0.74998933  1
  P  P31  1  0.00038867  0.29278033  0.74998933  1
  P  P32  1  0.29239167  0.99961133  0.74998933  1
  P  P33  1  0.04201233  0.66634267  0.91699067  1
  P  P34  1  0.33365733  0.37566967  0.91699067  1
  P  P35  1  0.62433033  0.95798767  0.91699067  1
  O  O36  1  0.33680233  0.86163167  0.35611567  1
  O  O37  1  0.52482933  0.66319767  0.35611567  1
  O  O38  1  0.13836833  0.47517067  0.35611567  1
  O  O39  1  0.18368200  0.01892600  0.07876800  1
  O  O40  1  0.47166800  0.13410000  0.14393700  1
  O  O41  1  0.35148500  0.84964700  0.08600300  1
  O  O42  1  0.83524400  0.81631800  0.07876800  1
  O  O43  1  0.49816200  0.64851500  0.08600300  1
  O  O44  1  0.80573533  0.99627967  0.19004667  1
  O  O45  1  0.15035300  0.50183800  0.08600300  1
  O  O46  1  0.68952433  0.16790167  0.25608667  1
  O  O47  1  0.00372033  0.80945567  0.19004667  1
  O  O48  1  0.66243200  0.52833200  0.14393700  1
  O  O49  1  0.98107400  0.16475600  0.07876800  1
  O  O50  1  0.51863467  0.83000333  0.24609433  1
  O  O51  1  0.86590000  0.33756800  0.14393700  1
  O  O52  1  0.16999667  0.68863133  0.24609433  1
  O  O53  1  0.83209833  0.52162267  0.25608667  1
  O  O54  1  0.31136867  0.48136533  0.24609433  1
  O  O55  1  0.19054433  0.19426467  0.19004667  1
  O  O56  1  0.47837733  0.31047567  0.25608667  1
  O  O57  1  0.52182433  0.85862467  0.97716567  1
  O  O58  1  0.14137533  0.66319967  0.97716567  1
  O  O59  1  0.33680033  0.47817567  0.97716567  1
  O  O60  1  0.00346900  0.19496500  0.68944900  1
  O  O61  1  0.19149600  0.99653100  0.68944900  1
  O  O62  1  0.80503500  0.80850400  0.68944900  1
  O  O63  1  0.85034867  0.35225933  0.41210133  1
  O  O64  1  0.13833467  0.46743333  0.47727033  1
  O  O65  1  0.01815167  0.18298033  0.41933633  1
  O  O66  1  0.50191067  0.14965133  0.41210133  1
  O  O67  1  0.16482867  0.98184833  0.41933633  1
  O  O68  1  0.47240200  0.32961300  0.52338000  1
  O  O69  1  0.81701967  0.83517133  0.41933633  1
  O  O70  1  0.35619100  0.50123500  0.58942000  1
  O  O71  1  0.67038700  0.14278900  0.52338000  1
  O  O72  1  0.32909867  0.86166533  0.47727033  1
  O  O73  1  0.64774067  0.49808933  0.41210133  1
  O  O74  1  0.18530133  0.16333667  0.57942767  1
  O  O75  1  0.53256667  0.67090133  0.47727033  1
  O  O76  1  0.83666333  0.02196467  0.57942767  1
  O  O77  1  0.49876500  0.85495600  0.58942000  1
  O  O78  1  0.97803533  0.81469867  0.57942767  1
  O  O79  1  0.85721100  0.52759800  0.52338000  1
  O  O80  1  0.14504400  0.64380900  0.58942000  1
  O  O81  1  0.18849100  0.19195800  0.31049900  1
  O  O82  1  0.80804200  0.99653300  0.31049900  1
  O  O83  1  0.00346700  0.81150900  0.31049900  1
  O  O84  1  0.67013567  0.52829833  0.02278233  1
  O  O85  1  0.85816267  0.32986433  0.02278233  1
  O  O86  1  0.47170167  0.14183733  0.02278233  1
  O  O87  1  0.51701533  0.68559267  0.74543467  1
  O  O88  1  0.80500133  0.80076667  0.81060367  1
  O  O89  1  0.68481833  0.51631367  0.75266967  1
  O  O90  1  0.16857733  0.48298467  0.74543467  1
  O  O91  1  0.83149533  0.31518167  0.75266967  1
  O  O92  1  0.13906867  0.66294633  0.85671333  1
  O  O93  1  0.48368633  0.16850467  0.75266967  1
  O  O94  1  0.02285767  0.83456833  0.92275333  1
  O  O95  1  0.33705367  0.47612233  0.85671333  1
  O  O96  1  0.99576533  0.19499867  0.81060367  1
  O  O97  1  0.31440733  0.83142267  0.74543467  1
  O  O98  1  0.85196800  0.49667000  0.91276100  1
  O  O99  1  0.19923333  0.00423467  0.81060367  1
  O  O100  1  0.50333000  0.35529800  0.91276100  1
  O  O101  1  0.16543167  0.18828933  0.92275333  1
  O  O102  1  0.64470200  0.14803200  0.91276100  1
  O  O103  1  0.52387767  0.86093133  0.85671333  1
  O  O104  1  0.81171067  0.97714233  0.92275333  1
  O  O105  1  0.85515767  0.52529133  0.64383233  1
  O  O106  1  0.47470867  0.32986633  0.64383233  1
  O  O107  1  0.67013367  0.14484233  0.64383233  1
