# generated using pymatgen
data_Ba3LaZnReWO12
_symmetry_space_group_name_H-M   'P 1'
_cell_length_a   5.73962593
_cell_length_b   5.73962593
_cell_length_c   27.76041523
_cell_angle_alpha   90.00000000
_cell_angle_beta   90.00000000
_cell_angle_gamma   120.00000000
_symmetry_Int_Tables_number   1
_chemical_formula_structural   Ba3LaZnReWO12
_chemical_formula_sum   'Ba9 La3 Zn3 Re3 W3 O36'
_cell_volume   791.99742142
_cell_formula_units_Z   3
loop_
 _symmetry_equiv_pos_site_id
 _symmetry_equiv_pos_as_xyz
  1  'x, y, z'
loop_
 _atom_site_type_symbol
 _atom_site_label
 _atom_site_symmetry_multiplicity
 _atom_site_fract_x
 _atom_site_fract_y
 _atom_site_fract_z
 _atom_site_occupancy
  Ba  Ba0  1  0.66666667  0.33333333  0.04178733  1
  Ba  Ba1  1  0.00000000  0.00000000  0.29117000  1
  Ba  Ba2  1  0.00000000  0.00000000  0.13096500  1
  Ba  Ba3  1  0.33333333  0.66666667  0.37512067  1
  Ba  Ba4  1  0.66666667  0.33333333  0.62450333  1
  Ba  Ba5  1  0.66666667  0.33333333  0.46429833  1
  Ba  Ba6  1  0.00000000  0.00000000  0.70845400  1
  Ba  Ba7  1  0.33333333  0.66666667  0.95783667  1
  Ba  Ba8  1  0.33333333  0.66666667  0.79763167  1
  La  La9  1  0.66666667  0.33333333  0.20600533  1
  La  La10  1  0.33333333  0.66666667  0.53933867  1
  La  La11  1  0.00000000  0.00000000  0.87267200  1
  Zn  Zn12  1  0.66666667  0.33333333  0.33264933  1
  Zn  Zn13  1  0.33333333  0.66666667  0.66598267  1
  Zn  Zn14  1  0.00000000  0.00000000  0.99931600  1
  Re  Re15  1  0.33333333  0.66666667  0.08871567  1
  Re  Re16  1  0.00000000  0.00000000  0.42204900  1
  Re  Re17  1  0.66666667  0.33333333  0.75538233  1
  W  W18  1  0.33333333  0.66666667  0.24451567  1
  W  W19  1  0.00000000  0.00000000  0.57784900  1
  W  W20  1  0.66666667  0.33333333  0.91118233  1
  O  O21  1  0.49828400  0.99656800  0.28651500  1
  O  O22  1  0.00343200  0.50171600  0.28651500  1
  O  O23  1  0.49828400  0.50171600  0.28651500  1
  O  O24  1  0.16989800  0.83010200  0.20909200  1
  O  O25  1  0.66020400  0.83010200  0.20909200  1
  O  O26  1  0.16989800  0.33979600  0.20909200  1
  O  O27  1  0.49213633  0.98427267  0.12434867  1
  O  O28  1  0.01572733  0.50786367  0.12434867  1
  O  O29  1  0.49213633  0.50786367  0.12434867  1
  O  O30  1  0.17639600  0.82360400  0.04588600  1
  O  O31  1  0.64720800  0.82360400  0.04588600  1
  O  O32  1  0.17639600  0.35279200  0.04588600  1
  O  O33  1  0.16495067  0.32990133  0.61984833  1
  O  O34  1  0.67009867  0.83504933  0.61984833  1
  O  O35  1  0.16495067  0.83504933  0.61984833  1
  O  O36  1  0.83656467  0.16343533  0.54242533  1
  O  O37  1  0.32687067  0.16343533  0.54242533  1
  O  O38  1  0.83656467  0.67312933  0.54242533  1
  O  O39  1  0.15880300  0.31760600  0.45768200  1
  O  O40  1  0.68239400  0.84119700  0.45768200  1
  O  O41  1  0.15880300  0.84119700  0.45768200  1
  O  O42  1  0.84306267  0.15693733  0.37921933  1
  O  O43  1  0.31387467  0.15693733  0.37921933  1
  O  O44  1  0.84306267  0.68612533  0.37921933  1
  O  O45  1  0.83161733  0.66323467  0.95318167  1
  O  O46  1  0.33676533  0.16838267  0.95318167  1
  O  O47  1  0.83161733  0.16838267  0.95318167  1
  O  O48  1  0.50323133  0.49676867  0.87575867  1
  O  O49  1  0.99353733  0.49676867  0.87575867  1
  O  O50  1  0.50323133  0.00646267  0.87575867  1
  O  O51  1  0.82546967  0.65093933  0.79101533  1
  O  O52  1  0.34906067  0.17453033  0.79101533  1
  O  O53  1  0.82546967  0.17453033  0.79101533  1
  O  O54  1  0.50972933  0.49027067  0.71255267  1
  O  O55  1  0.98054133  0.49027067  0.71255267  1
  O  O56  1  0.50972933  0.01945867  0.71255267  1
