# generated using pymatgen
data_LiVP3HO10
_symmetry_space_group_name_H-M   'P 1'
_cell_length_a   9.40913400
_cell_length_b   8.67201800
_cell_length_c   6.35060402
_cell_angle_alpha   90.00000000
_cell_angle_beta   114.21656052
_cell_angle_gamma   90.00000000
_symmetry_Int_Tables_number   1
_chemical_formula_structural   LiVP3HO10
_chemical_formula_sum   'Li2 V2 P6 H2 O20'
_cell_volume   472.58556967
_cell_formula_units_Z   2
loop_
 _symmetry_equiv_pos_site_id
 _symmetry_equiv_pos_as_xyz
  1  'x, y, z'
loop_
 _atom_site_type_symbol
 _atom_site_label
 _atom_site_symmetry_multiplicity
 _atom_site_fract_x
 _atom_site_fract_y
 _atom_site_fract_z
 _atom_site_occupancy
  Li  Li0  1  0.00000000  0.00519500  0.50000000  1
  Li  Li1  1  0.50000000  0.50519500  0.50000000  1
  V  V2  1  0.00000000  0.66438600  0.00000000  1
  V  V3  1  0.50000000  0.16438600  0.00000000  1
  P  P4  1  0.17816850  0.37715950  0.89959500  1
  P  P5  1  0.00000000  0.57039700  0.50000000  1
  P  P6  1  0.82183150  0.37715950  0.10040500  1
  P  P7  1  0.67816850  0.87715950  0.89959500  1
  P  P8  1  0.50000000  0.07039700  0.50000000  1
  P  P9  1  0.32183150  0.87715950  0.10040500  1
  H  H10  1  0.00000000  0.24502100  0.00000000  1
  H  H11  1  0.50000000  0.74502100  0.00000000  1
  O  O12  1  0.16473200  0.50307100  0.05906200  1
  O  O13  1  0.15431950  0.82762550  0.02121700  1
  O  O14  1  0.05660500  0.66418100  0.35070400  1
  O  O15  1  0.13941850  0.45567250  0.64693400  1
  O  O16  1  0.94146250  0.24625750  0.14069000  1
  O  O17  1  0.05853750  0.24625750  0.85931000  1
  O  O18  1  0.86058150  0.45567250  0.35306600  1
  O  O19  1  0.94339500  0.66418100  0.64929600  1
  O  O20  1  0.84568050  0.82762550  0.97878300  1
  O  O21  1  0.83526800  0.50307100  0.94093800  1
  O  O22  1  0.66473200  0.00307100  0.05906200  1
  O  O23  1  0.65431950  0.32762550  0.02121700  1
  O  O24  1  0.55660500  0.16418100  0.35070400  1
  O  O25  1  0.63941850  0.95567250  0.64693400  1
  O  O26  1  0.44146250  0.74625750  0.14069000  1
  O  O27  1  0.55853750  0.74625750  0.85931000  1
  O  O28  1  0.36058150  0.95567250  0.35306600  1
  O  O29  1  0.44339500  0.16418100  0.64929600  1
  O  O30  1  0.34568050  0.32762550  0.97878300  1
  O  O31  1  0.33526800  0.00307100  0.94093800  1
