# generated using pymatgen
data_LiCu4(PO4)3
_symmetry_space_group_name_H-M   'P 1'
_cell_length_a   6.22210200
_cell_length_b   15.41378000
_cell_length_c   9.94626500
_cell_angle_alpha   90.00000000
_cell_angle_beta   90.00000000
_cell_angle_gamma   90.00000000
_symmetry_Int_Tables_number   1
_chemical_formula_structural   LiCu4(PO4)3
_chemical_formula_sum   'Li4 Cu16 P12 O48'
_cell_volume   953.90759876
_cell_formula_units_Z   4
loop_
 _symmetry_equiv_pos_site_id
 _symmetry_equiv_pos_as_xyz
  1  'x, y, z'
loop_
 _atom_site_type_symbol
 _atom_site_label
 _atom_site_symmetry_multiplicity
 _atom_site_fract_x
 _atom_site_fract_y
 _atom_site_fract_z
 _atom_site_occupancy
  Li  Li0  1  0.50000000  0.48673600  0.74435000  1
  Li  Li1  1  0.00000000  0.01326400  0.24435000  1
  Li  Li2  1  0.00000000  0.98673600  0.74435000  1
  Li  Li3  1  0.50000000  0.51326400  0.24435000  1
  Cu  Cu4  1  0.00000000  0.38065300  0.56380800  1
  Cu  Cu5  1  0.74667050  0.19782550  0.74853500  1
  Cu  Cu6  1  0.25332950  0.19782550  0.74853500  1
  Cu  Cu7  1  0.00000000  0.36944000  0.94723300  1
  Cu  Cu8  1  0.50000000  0.11934700  0.06380800  1
  Cu  Cu9  1  0.24667050  0.30217450  0.24853500  1
  Cu  Cu10  1  0.75332950  0.30217450  0.24853500  1
  Cu  Cu11  1  0.50000000  0.13056000  0.44723300  1
  Cu  Cu12  1  0.50000000  0.88065300  0.56380800  1
  Cu  Cu13  1  0.24667050  0.69782550  0.74853500  1
  Cu  Cu14  1  0.75332950  0.69782550  0.74853500  1
  Cu  Cu15  1  0.50000000  0.86944000  0.94723300  1
  Cu  Cu16  1  0.00000000  0.61934700  0.06380800  1
  Cu  Cu17  1  0.74667050  0.80217450  0.24853500  1
  Cu  Cu18  1  0.25332950  0.80217450  0.24853500  1
  Cu  Cu19  1  0.00000000  0.63056000  0.44723300  1
  P  P20  1  0.50000000  0.31680800  0.53346800  1
  P  P21  1  0.50000000  0.02016100  0.79417800  1
  P  P22  1  0.50000000  0.31515900  0.96622200  1
  P  P23  1  0.00000000  0.18319200  0.03346800  1
  P  P24  1  0.00000000  0.47983900  0.29417800  1
  P  P25  1  0.00000000  0.18484100  0.46622200  1
  P  P26  1  0.00000000  0.81680800  0.53346800  1
  P  P27  1  0.00000000  0.52016100  0.79417800  1
  P  P28  1  0.00000000  0.81515900  0.96622200  1
  P  P29  1  0.50000000  0.68319200  0.03346800  1
  P  P30  1  0.50000000  0.97983900  0.29417800  1
  P  P31  1  0.50000000  0.68484100  0.46622200  1
  O  O32  1  0.30460000  0.36841700  0.57590200  1
  O  O33  1  0.69540000  0.36841700  0.57590200  1
  O  O34  1  0.50000000  0.22325100  0.60795000  1
  O  O35  1  0.00000000  0.21331400  0.61915600  1
  O  O36  1  0.70962900  0.06235800  0.74179600  1
  O  O37  1  0.00000000  0.42147000  0.75622700  1
  O  O38  1  0.29037100  0.06235800  0.74179600  1
  O  O39  1  0.00000000  0.20837100  0.87967500  1
  O  O40  1  0.50000000  0.22624500  0.88281900  1
  O  O41  1  0.30431600  0.36909600  0.93072200  1
  O  O42  1  0.69568400  0.36909600  0.93072200  1
  O  O43  1  0.50000000  0.01404000  0.95123400  1
  O  O44  1  0.80460000  0.13158300  0.07590200  1
  O  O45  1  0.19540000  0.13158300  0.07590200  1
  O  O46  1  0.00000000  0.27674900  0.10795000  1
  O  O47  1  0.50000000  0.28668600  0.11915600  1
  O  O48  1  0.50000000  0.07853000  0.25622700  1
  O  O49  1  0.20962900  0.43764200  0.24179600  1
  O  O50  1  0.79037100  0.43764200  0.24179600  1
  O  O51  1  0.50000000  0.29162900  0.37967500  1
  O  O52  1  0.00000000  0.27375500  0.38281900  1
  O  O53  1  0.19568400  0.13090400  0.43072200  1
  O  O54  1  0.80431600  0.13090400  0.43072200  1
  O  O55  1  0.00000000  0.48596000  0.45123400  1
  O  O56  1  0.80460000  0.86841700  0.57590200  1
  O  O57  1  0.19540000  0.86841700  0.57590200  1
  O  O58  1  0.00000000  0.72325100  0.60795000  1
  O  O59  1  0.50000000  0.71331400  0.61915600  1
  O  O60  1  0.20962900  0.56235800  0.74179600  1
  O  O61  1  0.50000000  0.92147000  0.75622700  1
  O  O62  1  0.79037100  0.56235800  0.74179600  1
  O  O63  1  0.50000000  0.70837100  0.87967500  1
  O  O64  1  0.00000000  0.72624500  0.88281900  1
  O  O65  1  0.80431600  0.86909600  0.93072200  1
  O  O66  1  0.19568400  0.86909600  0.93072200  1
  O  O67  1  0.00000000  0.51404000  0.95123400  1
  O  O68  1  0.30460000  0.63158300  0.07590200  1
  O  O69  1  0.69540000  0.63158300  0.07590200  1
  O  O70  1  0.50000000  0.77674900  0.10795000  1
  O  O71  1  0.00000000  0.78668600  0.11915600  1
  O  O72  1  0.00000000  0.57853000  0.25622700  1
  O  O73  1  0.70962900  0.93764200  0.24179600  1
  O  O74  1  0.29037100  0.93764200  0.24179600  1
  O  O75  1  0.00000000  0.79162900  0.37967500  1
  O  O76  1  0.50000000  0.77375500  0.38281900  1
  O  O77  1  0.69568400  0.63090400  0.43072200  1
  O  O78  1  0.30431600  0.63090400  0.43072200  1
  O  O79  1  0.50000000  0.98596000  0.45123400  1
