# generated using pymatgen
data_Cr3P
_symmetry_space_group_name_H-M   'P 1'
_cell_length_a   9.09476800
_cell_length_b   9.09476800
_cell_length_c   4.49633400
_cell_angle_alpha   90.00000000
_cell_angle_beta   90.00000000
_cell_angle_gamma   90.00000000
_symmetry_Int_Tables_number   1
_chemical_formula_structural   Cr3P
_chemical_formula_sum   'Cr24 P8'
_cell_volume   371.91338991
_cell_formula_units_Z   8
loop_
 _symmetry_equiv_pos_site_id
 _symmetry_equiv_pos_as_xyz
  1  'x, y, z'
loop_
 _atom_site_type_symbol
 _atom_site_label
 _atom_site_symmetry_multiplicity
 _atom_site_fract_x
 _atom_site_fract_y
 _atom_site_fract_z
 _atom_site_occupancy
  Cr  Cr0  1  0.35841600  0.02963200  0.99907600  1
  Cr  Cr1  1  0.52963200  0.14158400  0.50092400  1
  Cr  Cr2  1  0.47036800  0.85841600  0.50092400  1
  Cr  Cr3  1  0.64158400  0.97036800  0.99907600  1
  Cr  Cr4  1  0.66636200  0.72237600  0.26849400  1
  Cr  Cr5  1  0.22237600  0.83363800  0.23150600  1
  Cr  Cr6  1  0.77762400  0.16636200  0.23150600  1
  Cr  Cr7  1  0.33363800  0.27762400  0.26849400  1
  Cr  Cr8  1  0.42444950  0.39889050  0.73556050  1
  Cr  Cr9  1  0.89889050  0.07555050  0.76443950  1
  Cr  Cr10  1  0.10110950  0.92444950  0.76443950  1
  Cr  Cr11  1  0.57555050  0.60110950  0.73556050  1
  Cr  Cr12  1  0.85841600  0.52963200  0.49907600  1
  Cr  Cr13  1  0.02963200  0.64158400  0.00092400  1
  Cr  Cr14  1  0.97036800  0.35841600  0.00092400  1
  Cr  Cr15  1  0.14158400  0.47036800  0.49907600  1
  Cr  Cr16  1  0.16636200  0.22237600  0.76849400  1
  Cr  Cr17  1  0.72237600  0.33363800  0.73150600  1
  Cr  Cr18  1  0.27762400  0.66636200  0.73150600  1
  Cr  Cr19  1  0.83363800  0.77762400  0.76849400  1
  Cr  Cr20  1  0.92444950  0.89889050  0.23556050  1
  Cr  Cr21  1  0.39889050  0.57555050  0.26443950  1
  Cr  Cr22  1  0.60110950  0.42444950  0.26443950  1
  Cr  Cr23  1  0.07555050  0.10110950  0.23556050  1
  P  P24  1  0.70973950  0.95509150  0.50355950  1
  P  P25  1  0.45509150  0.79026050  0.99644050  1
  P  P26  1  0.54490850  0.20973950  0.99644050  1
  P  P27  1  0.29026050  0.04490850  0.50355950  1
  P  P28  1  0.20973950  0.45509150  0.00355950  1
  P  P29  1  0.95509150  0.29026050  0.49644050  1
  P  P30  1  0.04490850  0.70973950  0.49644050  1
  P  P31  1  0.79026050  0.54490850  0.00355950  1
