# generated using pymatgen
data_Li2Ti3MnO8
_symmetry_space_group_name_H-M   'P 1'
_cell_length_a   5.97661479
_cell_length_b   5.97661479
_cell_length_c   15.29899736
_cell_angle_alpha   90.00000000
_cell_angle_beta   90.00000000
_cell_angle_gamma   120.00000000
_symmetry_Int_Tables_number   1
_chemical_formula_structural   Li2Ti3MnO8
_chemical_formula_sum   'Li6 Ti9 Mn3 O24'
_cell_volume   473.26472173
_cell_formula_units_Z   3
loop_
 _symmetry_equiv_pos_site_id
 _symmetry_equiv_pos_as_xyz
  1  'x, y, z'
loop_
 _atom_site_type_symbol
 _atom_site_label
 _atom_site_symmetry_multiplicity
 _atom_site_fract_x
 _atom_site_fract_y
 _atom_site_fract_z
 _atom_site_occupancy
  Li  Li0  1  0.33333333  0.66666667  0.78321117  1
  Li  Li1  1  0.00000000  0.00000000  0.88345550  1
  Li  Li2  1  0.00000000  0.00000000  0.11654450  1
  Li  Li3  1  0.66666667  0.33333333  0.21678883  1
  Li  Li4  1  0.66666667  0.33333333  0.44987783  1
  Li  Li5  1  0.33333333  0.66666667  0.55012217  1
  Ti  Ti6  1  0.50000000  0.00000000  0.00000000  1
  Ti  Ti7  1  0.33333333  0.16666667  0.66666667  1
  Ti  Ti8  1  0.83333333  0.16666667  0.66666667  1
  Ti  Ti9  1  0.16666667  0.33333333  0.33333333  1
  Ti  Ti10  1  0.00000000  0.50000000  1.00000000  1
  Ti  Ti11  1  0.50000000  0.50000000  1.00000000  1
  Ti  Ti12  1  0.83333333  0.66666667  0.66666667  1
  Ti  Ti13  1  0.66666667  0.83333333  0.33333333  1
  Ti  Ti14  1  0.16666667  0.83333333  0.33333333  1
  Mn  Mn15  1  0.66666667  0.33333333  0.83333333  1
  Mn  Mn16  1  0.33333333  0.66666667  0.16666667  1
  Mn  Mn17  1  1.00000000  1.00000000  0.50000000  1
  O  O18  1  0.33333333  0.66666667  0.92977250  1
  O  O19  1  0.00000000  0.00000000  0.73689417  1
  O  O20  1  0.51372442  0.48627558  0.73613983  1
  O  O21  1  0.97255117  0.48627558  0.73613983  1
  O  O22  1  0.51372442  0.02744883  0.73613983  1
  O  O23  1  0.81960892  0.63921783  0.93052683  1
  O  O24  1  0.36078217  0.18039108  0.93052683  1
  O  O25  1  0.81960892  0.18039108  0.93052683  1
  O  O26  1  0.00000000  0.00000000  0.26310583  1
  O  O27  1  0.66666667  0.33333333  0.07022750  1
  O  O28  1  0.18039108  0.81960892  0.06947317  1
  O  O29  1  0.63921783  0.81960892  0.06947317  1
  O  O30  1  0.18039108  0.36078217  0.06947317  1
  O  O31  1  0.48627558  0.97255117  0.26386017  1
  O  O32  1  0.02744883  0.51372442  0.26386017  1
  O  O33  1  0.48627558  0.51372442  0.26386017  1
  O  O34  1  0.66666667  0.33333333  0.59643917  1
  O  O35  1  0.33333333  0.66666667  0.40356083  1
  O  O36  1  0.84705775  0.15294225  0.40280650  1
  O  O37  1  0.30588450  0.15294225  0.40280650  1
  O  O38  1  0.84705775  0.69411550  0.40280650  1
  O  O39  1  0.15294225  0.30588450  0.59719350  1
  O  O40  1  0.69411550  0.84705775  0.59719350  1
  O  O41  1  0.15294225  0.84705775  0.59719350  1
