# generated using pymatgen
data_Li4V2Si3O10
_symmetry_space_group_name_H-M   'P 1'
_cell_length_a   9.17759000
_cell_length_b   5.59997000
_cell_length_c   17.07024380
_cell_angle_alpha   90.00000000
_cell_angle_beta   99.45757948
_cell_angle_gamma   90.00000000
_symmetry_Int_Tables_number   1
_chemical_formula_structural   Li4V2Si3O10
_chemical_formula_sum   'Li16 V8 Si12 O40'
_cell_volume   865.38717493
_cell_formula_units_Z   4
loop_
 _symmetry_equiv_pos_site_id
 _symmetry_equiv_pos_as_xyz
  1  'x, y, z'
loop_
 _atom_site_type_symbol
 _atom_site_label
 _atom_site_symmetry_multiplicity
 _atom_site_fract_x
 _atom_site_fract_y
 _atom_site_fract_z
 _atom_site_occupancy
  Li  Li0  1  0.75248350  0.92302750  0.55210800  1
  Li  Li1  1  0.68640400  0.10627200  0.73115200  1
  Li  Li2  1  0.75248350  0.07697250  0.05210800  1
  Li  Li3  1  0.68640400  0.89372800  0.23115200  1
  Li  Li4  1  0.31359600  0.10627200  0.76884800  1
  Li  Li5  1  0.24751650  0.92302750  0.94789200  1
  Li  Li6  1  0.31359600  0.89372800  0.26884800  1
  Li  Li7  1  0.24751650  0.07697250  0.44789200  1
  Li  Li8  1  0.25248350  0.42302750  0.55210800  1
  Li  Li9  1  0.18640400  0.60627200  0.73115200  1
  Li  Li10  1  0.25248350  0.57697250  0.05210800  1
  Li  Li11  1  0.18640400  0.39372800  0.23115200  1
  Li  Li12  1  0.81359600  0.60627200  0.76884800  1
  Li  Li13  1  0.74751650  0.42302750  0.94789200  1
  Li  Li14  1  0.81359600  0.39372800  0.26884800  1
  Li  Li15  1  0.74751650  0.57697250  0.44789200  1
  V  V16  1  0.59946850  0.39671550  0.58346800  1
  V  V17  1  0.59946850  0.60328450  0.08346800  1
  V  V18  1  0.40053150  0.39671550  0.91653200  1
  V  V19  1  0.40053150  0.60328450  0.41653200  1
  V  V20  1  0.09946850  0.89671550  0.58346800  1
  V  V21  1  0.09946850  0.10328450  0.08346800  1
  V  V22  1  0.90053150  0.89671550  0.91653200  1
  V  V23  1  0.90053150  0.10328450  0.41653200  1
  Si  Si24  1  0.56204550  0.90185450  0.90048200  1
  Si  Si25  1  0.50000000  0.61121200  0.75000000  1
  Si  Si26  1  0.43795450  0.90185450  0.59951800  1
  Si  Si27  1  0.56204550  0.09814550  0.40048200  1
  Si  Si28  1  0.50000000  0.38878800  0.25000000  1
  Si  Si29  1  0.43795450  0.09814550  0.09951800  1
  Si  Si30  1  0.06204550  0.40185450  0.90048200  1
  Si  Si31  1  0.00000000  0.11121200  0.75000000  1
  Si  Si32  1  0.93795450  0.40185450  0.59951800  1
  Si  Si33  1  0.06204550  0.59814550  0.40048200  1
  Si  Si34  1  0.00000000  0.88878800  0.25000000  1
  Si  Si35  1  0.93795450  0.59814550  0.09951800  1
  O  O36  1  0.88051700  0.95680500  0.78846200  1
  O  O37  1  0.88051700  0.04319500  0.28846200  1
  O  O38  1  0.69642250  0.08546350  0.93332900  1
  O  O39  1  0.60131500  0.02815300  0.61502200  1
  O  O40  1  0.59793200  0.80204400  0.81275500  1
  O  O41  1  0.43437400  0.66230100  0.54384200  1
  O  O42  1  0.56562600  0.66230100  0.95615800  1
  O  O43  1  0.69642250  0.91453650  0.43332900  1
  O  O44  1  0.60131500  0.97184700  0.11502200  1
  O  O45  1  0.40206800  0.80204400  0.68724500  1
  O  O46  1  0.59793200  0.19795600  0.31275500  1
  O  O47  1  0.39868500  0.02815300  0.88497800  1
  O  O48  1  0.30357750  0.08546350  0.56667100  1
  O  O49  1  0.43437400  0.33769900  0.04384200  1
  O  O50  1  0.56562600  0.33769900  0.45615800  1
  O  O51  1  0.40206800  0.19795600  0.18724500  1
  O  O52  1  0.39868500  0.97184700  0.38497800  1
  O  O53  1  0.30357750  0.91453650  0.06667100  1
  O  O54  1  0.11948300  0.95680500  0.71153800  1
  O  O55  1  0.11948300  0.04319500  0.21153800  1
  O  O56  1  0.38051700  0.45680500  0.78846200  1
  O  O57  1  0.38051700  0.54319500  0.28846200  1
  O  O58  1  0.19642250  0.58546350  0.93332900  1
  O  O59  1  0.10131500  0.52815300  0.61502200  1
  O  O60  1  0.09793200  0.30204400  0.81275500  1
  O  O61  1  0.93437400  0.16230100  0.54384200  1
  O  O62  1  0.06562600  0.16230100  0.95615800  1
  O  O63  1  0.19642250  0.41453650  0.43332900  1
  O  O64  1  0.10131500  0.47184700  0.11502200  1
  O  O65  1  0.90206800  0.30204400  0.68724500  1
  O  O66  1  0.09793200  0.69795600  0.31275500  1
  O  O67  1  0.89868500  0.52815300  0.88497800  1
  O  O68  1  0.80357750  0.58546350  0.56667100  1
  O  O69  1  0.93437400  0.83769900  0.04384200  1
  O  O70  1  0.06562600  0.83769900  0.45615800  1
  O  O71  1  0.90206800  0.69795600  0.18724500  1
  O  O72  1  0.89868500  0.47184700  0.38497800  1
  O  O73  1  0.80357750  0.41453650  0.06667100  1
  O  O74  1  0.61948300  0.45680500  0.71153800  1
  O  O75  1  0.61948300  0.54319500  0.21153800  1
