# generated using pymatgen
data_Cs2MnO4
_symmetry_space_group_name_H-M   'P 1'
_cell_length_a   6.37523854
_cell_length_b   11.63285701
_cell_length_c   8.67039575
_cell_angle_alpha   90.00000000
_cell_angle_beta   90.00000000
_cell_angle_gamma   90.00000000
_symmetry_Int_Tables_number   1
_chemical_formula_structural   Cs2MnO4
_chemical_formula_sum   'Cs8 Mn4 O16'
_cell_volume   643.01595638
_cell_formula_units_Z   4
loop_
 _symmetry_equiv_pos_site_id
 _symmetry_equiv_pos_as_xyz
  1  'x, y, z'
loop_
 _atom_site_type_symbol
 _atom_site_label
 _atom_site_symmetry_multiplicity
 _atom_site_fract_x
 _atom_site_fract_y
 _atom_site_fract_z
 _atom_site_occupancy
  Cs  Cs0  1  0.00000000  0.47314400  0.88443700  1
  Cs  Cs1  1  0.50000000  0.02685600  0.38443700  1
  Cs  Cs2  1  0.50000000  0.34890450  0.58705400  1
  Cs  Cs3  1  0.00000000  0.15109550  0.08705400  1
  Cs  Cs4  1  0.50000000  0.97314400  0.88443700  1
  Cs  Cs5  1  0.00000000  0.52685600  0.38443700  1
  Cs  Cs6  1  0.00000000  0.84890450  0.58705400  1
  Cs  Cs7  1  0.50000000  0.65109550  0.08705400  1
  Mn  Mn8  1  0.50000000  0.32818700  0.09891600  1
  Mn  Mn9  1  0.00000000  0.17181300  0.59891600  1
  Mn  Mn10  1  0.00000000  0.82818700  0.09891600  1
  Mn  Mn11  1  0.50000000  0.67181300  0.59891600  1
  O  O12  1  0.00000000  0.31612300  0.58865600  1
  O  O13  1  0.50000000  0.18387700  0.08865600  1
  O  O14  1  0.50000000  0.39014400  0.92598500  1
  O  O15  1  0.00000000  0.10985600  0.42598500  1
  O  O16  1  0.78712750  0.12830150  0.69422000  1
  O  O17  1  0.28712750  0.37169850  0.19422000  1
  O  O18  1  0.21287250  0.12830150  0.69422000  1
  O  O19  1  0.71287250  0.37169850  0.19422000  1
  O  O20  1  0.50000000  0.81612300  0.58865600  1
  O  O21  1  0.00000000  0.68387700  0.08865600  1
  O  O22  1  0.00000000  0.89014400  0.92598500  1
  O  O23  1  0.50000000  0.60985600  0.42598500  1
  O  O24  1  0.28712750  0.62830150  0.69422000  1
  O  O25  1  0.78712750  0.87169850  0.19422000  1
  O  O26  1  0.71287250  0.62830150  0.69422000  1
  O  O27  1  0.21287250  0.87169850  0.19422000  1
