# generated using pymatgen
data_TiMn3Te2(PO4)6
_symmetry_space_group_name_H-M   'P 1'
_cell_length_a   8.86811971
_cell_length_b   8.86811971
_cell_length_c   21.80437026
_cell_angle_alpha   90.00000000
_cell_angle_beta   90.00000000
_cell_angle_gamma   120.00000000
_symmetry_Int_Tables_number   1
_chemical_formula_structural   TiMn3Te2(PO4)6
_chemical_formula_sum   'Ti3 Mn9 Te6 P18 O72'
_cell_volume   1485.03699957
_cell_formula_units_Z   3
loop_
 _symmetry_equiv_pos_site_id
 _symmetry_equiv_pos_as_xyz
  1  'x, y, z'
loop_
 _atom_site_type_symbol
 _atom_site_label
 _atom_site_symmetry_multiplicity
 _atom_site_fract_x
 _atom_site_fract_y
 _atom_site_fract_z
 _atom_site_occupancy
  Ti  Ti0  1  0.00000000  0.00000000  0.14678800  1
  Ti  Ti1  1  0.66666667  0.33333333  0.48012133  1
  Ti  Ti2  1  0.33333333  0.66666667  0.81345467  1
  Mn  Mn3  1  0.66666667  0.33333333  0.17085133  1
  Mn  Mn4  1  0.33333333  0.66666667  0.31773467  1
  Mn  Mn5  1  0.33333333  0.66666667  0.01063667  1
  Mn  Mn6  1  0.33333333  0.66666667  0.50418467  1
  Mn  Mn7  1  0.00000000  0.00000000  0.65106800  1
  Mn  Mn8  1  0.00000000  0.00000000  0.34397000  1
  Mn  Mn9  1  0.00000000  0.00000000  0.83751800  1
  Mn  Mn10  1  0.66666667  0.33333333  0.98440133  1
  Mn  Mn11  1  0.66666667  0.33333333  0.67730333  1
  Te  Te12  1  0.66666667  0.33333333  0.31466733  1
  Te  Te13  1  0.33333333  0.66666667  0.15546767  1
  Te  Te14  1  0.33333333  0.66666667  0.64800067  1
  Te  Te15  1  0.00000000  0.00000000  0.48880100  1
  Te  Te16  1  0.00000000  0.00000000  0.98133400  1
  Te  Te17  1  0.66666667  0.33333333  0.82213433  1
  P  P18  1  0.29333467  0.99870433  0.25031933  1
  P  P19  1  0.00129567  0.29463033  0.25031933  1
  P  P20  1  0.70536967  0.70666533  0.25031933  1
  P  P21  1  0.97048467  0.63996633  0.08645933  1
  P  P22  1  0.66948167  0.02951533  0.08645933  1
  P  P23  1  0.36003367  0.33051833  0.08645933  1
  P  P24  1  0.96000133  0.33203767  0.58365267  1
  P  P25  1  0.66796233  0.62796367  0.58365267  1
  P  P26  1  0.37203633  0.03999867  0.58365267  1
  P  P27  1  0.63715133  0.97329967  0.41979267  1
  P  P28  1  0.33614833  0.36284867  0.41979267  1
  P  P29  1  0.02670033  0.66385167  0.41979267  1
  P  P30  1  0.62666800  0.66537100  0.91698600  1
  P  P31  1  0.33462900  0.96129700  0.91698600  1
  P  P32  1  0.03870300  0.37333200  0.91698600  1
  P  P33  1  0.30381800  0.30663300  0.75312600  1
  P  P34  1  0.00281500  0.69618200  0.75312600  1
  P  P35  1  0.69336700  0.99718500  0.75312600  1
  O  O36  1  0.44514167  0.32655633  0.02692433  1
  O  O37  1  0.88141467  0.55485833  0.02692433  1
  O  O38  1  0.49096267  0.17250633  0.25410233  1
  O  O39  1  0.67344367  0.11858533  0.02692433  1
  O  O40  1  0.32161400  0.84348900  0.23834800  1
  O  O41  1  0.19731567  0.02296133  0.19520033  1
  O  O42  1  0.82749367  0.31845633  0.25410233  1
  O  O43  1  0.15651100  0.47812500  0.23834800  1
  O  O44  1  0.52187500  0.67838600  0.23834800  1
  O  O45  1  0.88749167  0.54549533  0.14498533  1
  O  O46  1  0.00291600  0.83198900  0.08650600  1
  O  O47  1  0.65800367  0.11250833  0.14498533  1
  O  O48  1  0.97703867  0.17435433  0.19520033  1
  O  O49  1  0.68154367  0.50903733  0.25410233  1
  O  O50  1  0.82564567  0.80268433  0.19520033  1
  O  O51  1  0.16690567  0.66963033  0.08955233  1
  O  O52  1  0.50272467  0.83309433  0.08955233  1
  O  O53  1  0.82907300  0.99708400  0.08650600  1
  O  O54  1  0.45450467  0.34199633  0.14498533  1
  O  O55  1  0.33036967  0.49727533  0.08955233  1
  O  O56  1  0.00362300  0.21734400  0.31110900  1
  O  O57  1  0.16801100  0.17092700  0.08650600  1
  O  O58  1  0.78265600  0.78627900  0.31110900  1
  O  O59  1  0.21372100  0.99637700  0.31110900  1
  O  O60  1  0.11180833  0.65988967  0.36025767  1
  O  O61  1  0.54808133  0.88819167  0.36025767  1
  O  O62  1  0.15762933  0.50583967  0.58743567  1
  O  O63  1  0.34011033  0.45191867  0.36025767  1
  O  O64  1  0.98828067  0.17682233  0.57168133  1
  O  O65  1  0.86398233  0.35629467  0.52853367  1
  O  O66  1  0.49416033  0.65178967  0.58743567  1
  O  O67  1  0.82317767  0.81145833  0.57168133  1
  O  O68  1  0.18854167  0.01171933  0.57168133  1
  O  O69  1  0.55415833  0.87882867  0.47831867  1
  O  O70  1  0.66958267  0.16532233  0.41983933  1
  O  O71  1  0.32467033  0.44584167  0.47831867  1
  O  O72  1  0.64370533  0.50768767  0.52853367  1
  O  O73  1  0.34821033  0.84237067  0.58743567  1
  O  O74  1  0.49231233  0.13601767  0.52853367  1
  O  O75  1  0.83357233  0.00296367  0.42288567  1
  O  O76  1  0.16939133  0.16642767  0.42288567  1
  O  O77  1  0.49573967  0.33041733  0.41983933  1
  O  O78  1  0.12117133  0.67532967  0.47831867  1
  O  O79  1  0.99703633  0.83060867  0.42288567  1
  O  O80  1  0.67028967  0.55067733  0.64444233  1
  O  O81  1  0.83467767  0.50426033  0.41983933  1
  O  O82  1  0.44932267  0.11961233  0.64444233  1
  O  O83  1  0.88038767  0.32971033  0.64444233  1
  O  O84  1  0.77847500  0.99322300  0.69359100  1
  O  O85  1  0.21474800  0.22152500  0.69359100  1
  O  O86  1  0.82429600  0.83917300  0.92076900  1
  O  O87  1  0.00677700  0.78525200  0.69359100  1
  O  O88  1  0.65494733  0.51015567  0.90501467  1
  O  O89  1  0.53064900  0.68962800  0.86186700  1
  O  O90  1  0.16082700  0.98512300  0.92076900  1
  O  O91  1  0.48984433  0.14479167  0.90501467  1
  O  O92  1  0.85520833  0.34505267  0.90501467  1
  O  O93  1  0.22082500  0.21216200  0.81165200  1
  O  O94  1  0.33624933  0.49865567  0.75317267  1
  O  O95  1  0.99133700  0.77917500  0.81165200  1
  O  O96  1  0.31037200  0.84102100  0.86186700  1
  O  O97  1  0.01487700  0.17570400  0.92076900  1
  O  O98  1  0.15897900  0.46935100  0.86186700  1
  O  O99  1  0.50023900  0.33629700  0.75621900  1
  O  O100  1  0.83605800  0.49976100  0.75621900  1
  O  O101  1  0.16240633  0.66375067  0.75317267  1
  O  O102  1  0.78783800  0.00866300  0.81165200  1
  O  O103  1  0.66370300  0.16394200  0.75621900  1
  O  O104  1  0.33695633  0.88401067  0.97777567  1
  O  O105  1  0.50134433  0.83759367  0.75317267  1
  O  O106  1  0.11598933  0.45294567  0.97777567  1
  O  O107  1  0.54705433  0.66304367  0.97777567  1
