# generated using pymatgen
data_CrFe3Co2(PO4)6
_symmetry_space_group_name_H-M   'P 1'
_cell_length_a   8.64494338
_cell_length_b   8.64494338
_cell_length_c   20.32138145
_cell_angle_alpha   90.00000000
_cell_angle_beta   90.00000000
_cell_angle_gamma   120.00000000
_symmetry_Int_Tables_number   1
_chemical_formula_structural   CrFe3Co2(PO4)6
_chemical_formula_sum   'Cr3 Fe9 Co6 P18 O72'
_cell_volume   1315.24956159
_cell_formula_units_Z   3
loop_
 _symmetry_equiv_pos_site_id
 _symmetry_equiv_pos_as_xyz
  1  'x, y, z'
loop_
 _atom_site_type_symbol
 _atom_site_label
 _atom_site_symmetry_multiplicity
 _atom_site_fract_x
 _atom_site_fract_y
 _atom_site_fract_z
 _atom_site_occupancy
  Cr  Cr0  1  0.33333333  0.66666667  0.52506367  1
  Cr  Cr1  1  0.00000000  0.00000000  0.85839700  1
  Cr  Cr2  1  0.66666667  0.33333333  0.19173033  1
  Fe  Fe3  1  0.33333333  0.66666667  0.02136167  1
  Fe  Fe4  1  0.33333333  0.66666667  0.81165367  1
  Fe  Fe5  1  0.33333333  0.66666667  0.31132467  1
  Fe  Fe6  1  0.00000000  0.00000000  0.35469500  1
  Fe  Fe7  1  0.00000000  0.00000000  0.14498700  1
  Fe  Fe8  1  0.00000000  0.00000000  0.64465800  1
  Fe  Fe9  1  0.66666667  0.33333333  0.68802833  1
  Fe  Fe10  1  0.66666667  0.33333333  0.47832033  1
  Fe  Fe11  1  0.66666667  0.33333333  0.97799133  1
  Co  Co12  1  0.33333333  0.66666667  0.66848167  1
  Co  Co13  1  0.33333333  0.66666667  0.16645067  1
  Co  Co14  1  0.00000000  0.00000000  0.00181500  1
  Co  Co15  1  0.00000000  0.00000000  0.49978400  1
  Co  Co16  1  0.66666667  0.33333333  0.33514833  1
  Co  Co17  1  0.66666667  0.33333333  0.83311733  1
  P  P18  1  0.96160467  0.33400433  0.08384533  1
  P  P19  1  0.37239967  0.03839533  0.08384533  1
  P  P20  1  0.66599567  0.62760033  0.08384533  1
  P  P21  1  0.99955867  0.70220833  0.24918433  1
  P  P22  1  0.29779167  0.29735033  0.24918433  1
  P  P23  1  0.70264967  0.00044133  0.24918433  1
  P  P24  1  0.62827133  0.66733767  0.41717867  1
  P  P25  1  0.03906633  0.37172867  0.41717867  1
  P  P26  1  0.33266233  0.96093367  0.41717867  1
  P  P27  1  0.66622533  0.03554167  0.58251767  1
  P  P28  1  0.96445833  0.63068367  0.58251767  1
  P  P29  1  0.36931633  0.33377467  0.58251767  1
  P  P30  1  0.29493800  0.00067100  0.75051200  1
  P  P31  1  0.70573300  0.70506200  0.75051200  1
  P  P32  1  0.99932900  0.29426700  0.75051200  1
  P  P33  1  0.33289200  0.36887500  0.91585100  1
  P  P34  1  0.63112500  0.96401700  0.91585100  1
  P  P35  1  0.03598300  0.66710800  0.91585100  1
  O  O36  1  0.14162967  0.46366133  0.35499133  1
  O  O37  1  0.32203167  0.85837033  0.35499133  1
  O  O38  1  0.53633867  0.67796833  0.35499133  1
  O  O39  1  0.98705267  0.16781133  0.07336733  1
  O  O40  1  0.85739300  0.32483300  0.14549000  1
  O  O41  1  0.15318967  0.49969533  0.09460733  1
  O  O42  1  0.18075867  0.01294733  0.07336733  1
  O  O43  1  0.34650567  0.84681033  0.09460733  1
  O  O44  1  0.98858167  0.79567433  0.18755333  1
  O  O45  1  0.50030467  0.65349433  0.09460733  1
  O  O46  1  0.83253033  0.51032467  0.25912967  1
  O  O47  1  0.20432567  0.19290733  0.18755333  1
  O  O48  1  0.46744000  0.14260700  0.14549000  1
  O  O49  1  0.83218867  0.81924133  0.07336733  1
  O  O50  1  0.16507967  0.67653933  0.23891533  1
  O  O51  1  0.67516700  0.53256000  0.14549000  1
  O  O52  1  0.32346067  0.48854033  0.23891533  1
  O  O53  1  0.48967533  0.32220567  0.25912967  1
  O  O54  1  0.51145967  0.83492033  0.23891533  1
  O  O55  1  0.80709267  0.01141833  0.18755333  1
  O  O56  1  0.67779433  0.16746967  0.25912967  1
  O  O57  1  0.12979300  0.65926800  0.97813400  1
  O  O58  1  0.34073200  0.47052500  0.97813400  1
  O  O59  1  0.52947500  0.87020700  0.97813400  1
  O  O60  1  0.80829633  0.79699467  0.68832467  1
  O  O61  1  0.98869833  0.19170367  0.68832467  1
  O  O62  1  0.20300533  0.01130167  0.68832467  1
  O  O63  1  0.65371933  0.50114467  0.40670067  1
  O  O64  1  0.52405967  0.65816633  0.47882333  1
  O  O65  1  0.81985633  0.83302867  0.42794067  1
  O  O66  1  0.84742533  0.34628067  0.40670067  1
  O  O67  1  0.01317233  0.18014367  0.42794067  1
  O  O68  1  0.65524833  0.12900767  0.52088667  1
  O  O69  1  0.16697133  0.98682767  0.42794067  1
  O  O70  1  0.49919700  0.84365800  0.59246300  1
  O  O71  1  0.87099233  0.52624067  0.52088667  1
  O  O72  1  0.13410667  0.47594033  0.47882333  1
  O  O73  1  0.49885533  0.15257467  0.40670067  1
  O  O74  1  0.83174633  0.00987267  0.57224867  1
  O  O75  1  0.34183367  0.86589333  0.47882333  1
  O  O76  1  0.99012733  0.82187367  0.57224867  1
  O  O77  1  0.15634200  0.65553900  0.59246300  1
  O  O78  1  0.17812633  0.16825367  0.57224867  1
  O  O79  1  0.47375933  0.34475167  0.52088667  1
  O  O80  1  0.34446100  0.50080300  0.59246300  1
  O  O81  1  0.79645967  0.99260133  0.31146733  1
  O  O82  1  0.00739867  0.80385833  0.31146733  1
  O  O83  1  0.19614167  0.20354033  0.31146733  1
  O  O84  1  0.47496300  0.13032800  0.02165800  1
  O  O85  1  0.65536500  0.52503700  0.02165800  1
  O  O86  1  0.86967200  0.34463500  0.02165800  1
  O  O87  1  0.32038600  0.83447800  0.74003400  1
  O  O88  1  0.19072633  0.99149967  0.81215667  1
  O  O89  1  0.48652300  0.16636200  0.76127400  1
  O  O90  1  0.51409200  0.67961400  0.74003400  1
  O  O91  1  0.67983900  0.51347700  0.76127400  1
  O  O92  1  0.32191500  0.46234100  0.85422000  1
  O  O93  1  0.83363800  0.32016100  0.76127400  1
  O  O94  1  0.16586367  0.17699133  0.92579633  1
  O  O95  1  0.53765900  0.85957400  0.85422000  1
  O  O96  1  0.80077333  0.80927367  0.81215667  1
  O  O97  1  0.16552200  0.48590800  0.74003400  1
  O  O98  1  0.49841300  0.34320600  0.90558200  1
  O  O99  1  0.00850033  0.19922667  0.81215667  1
  O  O100  1  0.65679400  0.15520700  0.90558200  1
  O  O101  1  0.82300867  0.98887233  0.92579633  1
  O  O102  1  0.84479300  0.50158700  0.90558200  1
  O  O103  1  0.14042600  0.67808500  0.85422000  1
  O  O104  1  0.01112767  0.83413633  0.92579633  1
  O  O105  1  0.46312633  0.32593467  0.64480067  1
  O  O106  1  0.67406533  0.13719167  0.64480067  1
  O  O107  1  0.86280833  0.53687367  0.64480067  1
