# generated using pymatgen
data_LiY3WO8
_symmetry_space_group_name_H-M   'P 1'
_cell_length_a   5.75976400
_cell_length_b   11.18866800
_cell_length_c   6.15228700
_cell_angle_alpha   90.00000000
_cell_angle_beta   90.00000000
_cell_angle_gamma   90.00000000
_symmetry_Int_Tables_number   1
_chemical_formula_structural   LiY3WO8
_chemical_formula_sum   'Li2 Y6 W2 O16'
_cell_volume   396.47851963
_cell_formula_units_Z   2
loop_
 _symmetry_equiv_pos_site_id
 _symmetry_equiv_pos_as_xyz
  1  'x, y, z'
loop_
 _atom_site_type_symbol
 _atom_site_label
 _atom_site_symmetry_multiplicity
 _atom_site_fract_x
 _atom_site_fract_y
 _atom_site_fract_z
 _atom_site_occupancy
  Li  Li0  1  0.50000000  0.00000000  0.00000000  1
  Li  Li1  1  0.00000000  0.50000000  0.00000000  1
  Y  Y2  1  0.25000000  0.75000000  0.74160400  1
  Y  Y3  1  0.75000000  0.75000000  0.25839600  1
  Y  Y4  1  0.50000000  0.00000000  0.50000000  1
  Y  Y5  1  0.75000000  0.25000000  0.74160400  1
  Y  Y6  1  0.25000000  0.25000000  0.25839600  1
  Y  Y7  1  0.00000000  0.50000000  0.50000000  1
  W  W8  1  0.00000000  0.00000000  0.00000000  1
  W  W9  1  0.50000000  0.50000000  0.00000000  1
  O  O10  1  0.50000000  0.67614300  0.00000000  1
  O  O11  1  0.50000000  0.80437100  0.50000000  1
  O  O12  1  0.24646400  0.97122900  0.78553400  1
  O  O13  1  0.74646400  0.52877100  0.21446600  1
  O  O14  1  0.75353600  0.97122900  0.21446600  1
  O  O15  1  0.25353600  0.52877100  0.78553400  1
  O  O16  1  0.00000000  0.69562900  0.50000000  1
  O  O17  1  0.00000000  0.82385700  0.00000000  1
  O  O18  1  0.00000000  0.17614300  0.00000000  1
  O  O19  1  0.00000000  0.30437100  0.50000000  1
  O  O20  1  0.74646400  0.47122900  0.78553400  1
  O  O21  1  0.24646400  0.02877100  0.21446600  1
  O  O22  1  0.25353600  0.47122900  0.21446600  1
  O  O23  1  0.75353600  0.02877100  0.78553400  1
  O  O24  1  0.50000000  0.19562900  0.50000000  1
  O  O25  1  0.50000000  0.32385700  0.00000000  1
