# generated using pymatgen
data_Li2MnP2O7
_symmetry_space_group_name_H-M   'P 1'
_cell_length_a   9.62606200
_cell_length_b   5.12651800
_cell_length_c   11.78401494
_cell_angle_alpha   90.00000000
_cell_angle_beta   103.67827001
_cell_angle_gamma   90.00000000
_symmetry_Int_Tables_number   1
_chemical_formula_structural   Li2MnP2O7
_chemical_formula_sum   'Li8 Mn4 P8 O28'
_cell_volume   565.02713808
_cell_formula_units_Z   4
loop_
 _symmetry_equiv_pos_site_id
 _symmetry_equiv_pos_as_xyz
  1  'x, y, z'
loop_
 _atom_site_type_symbol
 _atom_site_label
 _atom_site_symmetry_multiplicity
 _atom_site_fract_x
 _atom_site_fract_y
 _atom_site_fract_z
 _atom_site_occupancy
  Li  Li0  1  0.86606000  0.76491600  0.36159600  1
  Li  Li1  1  0.63394000  0.26491600  0.13840400  1
  Li  Li2  1  0.86606000  0.23508400  0.86159600  1
  Li  Li3  1  0.63394000  0.73508400  0.63840400  1
  Li  Li4  1  0.36606000  0.26491600  0.36159600  1
  Li  Li5  1  0.13394000  0.76491600  0.13840400  1
  Li  Li6  1  0.36606000  0.73508400  0.86159600  1
  Li  Li7  1  0.13394000  0.23508400  0.63840400  1
  Mn  Mn8  1  0.75000000  0.25000000  0.50000000  1
  Mn  Mn9  1  0.75000000  0.75000000  0.00000000  1
  Mn  Mn10  1  0.25000000  0.75000000  0.50000000  1
  Mn  Mn11  1  0.25000000  0.25000000  0.00000000  1
  P  P12  1  0.96513450  0.70040250  0.62604200  1
  P  P13  1  0.53486550  0.20040250  0.87395800  1
  P  P14  1  0.96513450  0.29959750  0.12604200  1
  P  P15  1  0.53486550  0.79959750  0.37395800  1
  P  P16  1  0.46513450  0.20040250  0.62604200  1
  P  P17  1  0.03486550  0.70040250  0.87395800  1
  P  P18  1  0.46513450  0.79959750  0.12604200  1
  P  P19  1  0.03486550  0.29959750  0.37395800  1
  O  O20  1  0.88698000  0.38559000  0.38929300  1
  O  O21  1  0.62600300  0.96627100  0.85474600  1
  O  O22  1  0.61249750  0.39166450  0.96585000  1
  O  O23  1  0.00000000  0.86882800  0.75000000  1
  O  O24  1  0.61302000  0.88559000  0.11070700  1
  O  O25  1  0.88750250  0.89166450  0.53415000  1
  O  O26  1  0.87399700  0.46627100  0.64525400  1
  O  O27  1  0.62600300  0.03372900  0.35474600  1
  O  O28  1  0.61249750  0.60833550  0.46585000  1
  O  O29  1  0.88698000  0.61441000  0.88929300  1
  O  O30  1  0.00000000  0.13117200  0.25000000  1
  O  O31  1  0.88750250  0.10833550  0.03415000  1
  O  O32  1  0.87399700  0.53372900  0.14525400  1
  O  O33  1  0.61302000  0.11441000  0.61070700  1
  O  O34  1  0.38698000  0.88559000  0.38929300  1
  O  O35  1  0.12600300  0.46627100  0.85474600  1
  O  O36  1  0.11249750  0.89166450  0.96585000  1
  O  O37  1  0.50000000  0.36882800  0.75000000  1
  O  O38  1  0.11302000  0.38559000  0.11070700  1
  O  O39  1  0.38750250  0.39166450  0.53415000  1
  O  O40  1  0.37399700  0.96627100  0.64525400  1
  O  O41  1  0.12600300  0.53372900  0.35474600  1
  O  O42  1  0.11249750  0.10833550  0.46585000  1
  O  O43  1  0.38698000  0.11441000  0.88929300  1
  O  O44  1  0.50000000  0.63117200  0.25000000  1
  O  O45  1  0.38750250  0.60833550  0.03415000  1
  O  O46  1  0.37399700  0.03372900  0.14525400  1
  O  O47  1  0.11302000  0.61441000  0.61070700  1
