# generated using pymatgen
data_Li3Co2(SiO4)2
_symmetry_space_group_name_H-M   'P 1'
_cell_length_a   6.61184400
_cell_length_b   5.09494000
_cell_length_c   10.60229163
_cell_angle_alpha   90.00000000
_cell_angle_beta   91.21903939
_cell_angle_gamma   90.00000000
_symmetry_Int_Tables_number   1
_chemical_formula_structural   Li3Co2(SiO4)2
_chemical_formula_sum   'Li6 Co4 Si4 O16'
_cell_volume   357.07801558
_cell_formula_units_Z   2
loop_
 _symmetry_equiv_pos_site_id
 _symmetry_equiv_pos_as_xyz
  1  'x, y, z'
loop_
 _atom_site_type_symbol
 _atom_site_label
 _atom_site_symmetry_multiplicity
 _atom_site_fract_x
 _atom_site_fract_y
 _atom_site_fract_z
 _atom_site_occupancy
  Li  Li0  1  0.99169700  0.43261300  0.41323700  1
  Li  Li1  1  0.99169700  0.56738700  0.91323700  1
  Li  Li2  1  0.22357500  0.43766800  0.17180900  1
  Li  Li3  1  0.22357500  0.56233200  0.67180900  1
  Li  Li4  1  0.99498700  0.93305700  0.08543400  1
  Li  Li5  1  0.99498700  0.06694300  0.58543400  1
  Co  Co6  1  0.50944400  0.44814900  0.40129600  1
  Co  Co7  1  0.49847400  0.94385200  0.10030400  1
  Co  Co8  1  0.50944400  0.55185100  0.90129600  1
  Co  Co9  1  0.49847400  0.05614800  0.60030400  1
  Si  Si10  1  0.75823700  0.42778800  0.15911000  1
  Si  Si11  1  0.75823700  0.57221200  0.65911000  1
  Si  Si12  1  0.24243200  0.94123400  0.34357800  1
  Si  Si13  1  0.24243200  0.05876600  0.84357800  1
  O  O14  1  0.96365400  0.53878500  0.09875200  1
  O  O15  1  0.96365400  0.46121500  0.59875200  1
  O  O16  1  0.73936400  0.10438600  0.13601100  1
  O  O17  1  0.74462000  0.49975500  0.30861000  1
  O  O18  1  0.73936400  0.89561400  0.63601100  1
  O  O19  1  0.74462000  0.50024500  0.80861000  1
  O  O20  1  0.54362400  0.55198500  0.08863500  1
  O  O21  1  0.54362400  0.44801500  0.58863500  1
  O  O22  1  0.44912600  0.06627700  0.41766000  1
  O  O23  1  0.44912600  0.93372300  0.91766000  1
  O  O24  1  0.26253400  0.03563500  0.19058800  1
  O  O25  1  0.26240700  0.61505200  0.34338800  1
  O  O26  1  0.26253400  0.96436500  0.69058800  1
  O  O27  1  0.26240700  0.38494800  0.84338800  1
  O  O28  1  0.04606700  0.05287500  0.40860600  1
  O  O29  1  0.04606700  0.94712500  0.90860600  1
