# generated using pymatgen
data_LiMn2O4
_symmetry_space_group_name_H-M   'P 1'
_cell_length_a   8.15080400
_cell_length_b   8.30998600
_cell_length_c   5.90269910
_cell_angle_alpha   90.00000000
_cell_angle_beta   131.46665177
_cell_angle_gamma   90.00000000
_symmetry_Int_Tables_number   1
_chemical_formula_structural   LiMn2O4
_chemical_formula_sum   'Li4 Mn8 O16'
_cell_volume   299.59256761
_cell_formula_units_Z   4
loop_
 _symmetry_equiv_pos_site_id
 _symmetry_equiv_pos_as_xyz
  1  'x, y, z'
loop_
 _atom_site_type_symbol
 _atom_site_label
 _atom_site_symmetry_multiplicity
 _atom_site_fract_x
 _atom_site_fract_y
 _atom_site_fract_z
 _atom_site_occupancy
  Li  Li0  1  0.25000000  0.75000000  0.50000000  1
  Li  Li1  1  0.25000000  0.25000000  0.00000000  1
  Li  Li2  1  0.75000000  0.25000000  0.50000000  1
  Li  Li3  1  0.75000000  0.75000000  0.00000000  1
  Mn  Mn4  1  0.25000000  0.25000000  0.50000000  1
  Mn  Mn5  1  0.50000000  0.00000000  0.50000000  1
  Mn  Mn6  1  0.25000000  0.75000000  0.00000000  1
  Mn  Mn7  1  0.50000000  0.00000000  0.00000000  1
  Mn  Mn8  1  0.75000000  0.75000000  0.50000000  1
  Mn  Mn9  1  0.00000000  0.50000000  0.50000000  1
  Mn  Mn10  1  0.75000000  0.25000000  0.00000000  1
  Mn  Mn11  1  0.00000000  0.50000000  0.00000000  1
  O  O12  1  0.47975800  0.76925200  0.98449800  1
  O  O13  1  0.29075450  0.98908950  0.05848200  1
  O  O14  1  0.70924550  0.98908950  0.44151800  1
  O  O15  1  0.47975800  0.23074800  0.48449800  1
  O  O16  1  0.52024200  0.76925200  0.51550200  1
  O  O17  1  0.29075450  0.01091050  0.55848200  1
  O  O18  1  0.70924550  0.01091050  0.94151800  1
  O  O19  1  0.52024200  0.23074800  0.01550200  1
  O  O20  1  0.97975800  0.26925200  0.98449800  1
  O  O21  1  0.79075450  0.48908950  0.05848200  1
  O  O22  1  0.20924550  0.48908950  0.44151800  1
  O  O23  1  0.97975800  0.73074800  0.48449800  1
  O  O24  1  0.02024200  0.26925200  0.51550200  1
  O  O25  1  0.79075450  0.51091050  0.55848200  1
  O  O26  1  0.20924550  0.51091050  0.94151800  1
  O  O27  1  0.02024200  0.73074800  0.01550200  1
