# generated using pymatgen
data_LiMn2Fe3O8
_symmetry_space_group_name_H-M   'P 1'
_cell_length_a   6.03321200
_cell_length_b   6.06196000
_cell_length_c   8.42808200
_cell_angle_alpha   90.00000000
_cell_angle_beta   90.00000000
_cell_angle_gamma   90.00000000
_symmetry_Int_Tables_number   1
_chemical_formula_structural   LiMn2Fe3O8
_chemical_formula_sum   'Li2 Mn4 Fe6 O16'
_cell_volume   308.24099996
_cell_formula_units_Z   2
loop_
 _symmetry_equiv_pos_site_id
 _symmetry_equiv_pos_as_xyz
  1  'x, y, z'
loop_
 _atom_site_type_symbol
 _atom_site_label
 _atom_site_symmetry_multiplicity
 _atom_site_fract_x
 _atom_site_fract_y
 _atom_site_fract_z
 _atom_site_occupancy
  Li  Li0  1  0.50000000  0.00000000  0.36768200  1
  Li  Li1  1  0.00000000  0.50000000  0.86768200  1
  Mn  Mn2  1  0.50000000  0.25360700  0.00213500  1
  Mn  Mn3  1  0.00000000  0.24639300  0.50213500  1
  Mn  Mn4  1  0.00000000  0.75360700  0.50213500  1
  Mn  Mn5  1  0.50000000  0.74639300  0.00213500  1
  Fe  Fe6  1  0.24744800  0.00000000  0.74857000  1
  Fe  Fe7  1  0.25255200  0.50000000  0.24857000  1
  Fe  Fe8  1  0.00000000  0.00000000  0.12921600  1
  Fe  Fe9  1  0.74744800  0.50000000  0.24857000  1
  Fe  Fe10  1  0.75255200  0.00000000  0.74857000  1
  Fe  Fe11  1  0.50000000  0.50000000  0.62921600  1
  O  O12  1  0.27470000  0.50000000  0.00864200  1
  O  O13  1  0.22530000  0.00000000  0.50864200  1
  O  O14  1  0.50000000  0.27166450  0.23102950  1
  O  O15  1  0.00000000  0.22833550  0.73102950  1
  O  O16  1  0.00000000  0.27199400  0.26928700  1
  O  O17  1  0.00000000  0.72800600  0.26928700  1
  O  O18  1  0.77505900  0.50000000  0.49188800  1
  O  O19  1  0.22494100  0.50000000  0.49188800  1
  O  O20  1  0.77470000  0.00000000  0.50864200  1
  O  O21  1  0.72530000  0.50000000  0.00864200  1
  O  O22  1  0.00000000  0.77166450  0.73102950  1
  O  O23  1  0.50000000  0.72833550  0.23102950  1
  O  O24  1  0.50000000  0.77199400  0.76928700  1
  O  O25  1  0.50000000  0.22800600  0.76928700  1
  O  O26  1  0.27505900  0.00000000  0.99188800  1
  O  O27  1  0.72494100  0.00000000  0.99188800  1
