# generated using pymatgen
data_Na4Fe6O13
_symmetry_space_group_name_H-M   'P 1'
_cell_length_a   5.27150400
_cell_length_b   10.84894000
_cell_length_c   18.74985800
_cell_angle_alpha   90.00000000
_cell_angle_beta   90.00000000
_cell_angle_gamma   90.00000000
_symmetry_Int_Tables_number   1
_chemical_formula_structural   Na4Fe6O13
_chemical_formula_sum   'Na16 Fe24 O52'
_cell_volume   1072.30870285
_cell_formula_units_Z   4
loop_
 _symmetry_equiv_pos_site_id
 _symmetry_equiv_pos_as_xyz
  1  'x, y, z'
loop_
 _atom_site_type_symbol
 _atom_site_label
 _atom_site_symmetry_multiplicity
 _atom_site_fract_x
 _atom_site_fract_y
 _atom_site_fract_z
 _atom_site_occupancy
  Na  Na0  1  0.01241300  0.85751200  0.15603000  1
  Na  Na1  1  0.00095050  0.87725850  0.33283750  1
  Na  Na2  1  0.50095050  0.12274150  0.33283750  1
  Na  Na3  1  0.51241300  0.14248800  0.15603000  1
  Na  Na4  1  0.01241300  0.35751200  0.34397000  1
  Na  Na5  1  0.00095050  0.37725850  0.16716250  1
  Na  Na6  1  0.50095050  0.62274150  0.16716250  1
  Na  Na7  1  0.51241300  0.64248800  0.34397000  1
  Na  Na8  1  0.51241300  0.35751200  0.65603000  1
  Na  Na9  1  0.50095050  0.37725850  0.83283750  1
  Na  Na10  1  0.00095050  0.62274150  0.83283750  1
  Na  Na11  1  0.01241300  0.64248800  0.65603000  1
  Na  Na12  1  0.51241300  0.85751200  0.84397000  1
  Na  Na13  1  0.50095050  0.87725850  0.66716250  1
  Na  Na14  1  0.00095050  0.12274150  0.66716250  1
  Na  Na15  1  0.01241300  0.14248800  0.84397000  1
  Fe  Fe16  1  0.08239900  0.62965500  0.46050400  1
  Fe  Fe17  1  0.50175300  0.87565800  0.24131100  1
  Fe  Fe18  1  0.50021050  0.89870350  0.44684950  1
  Fe  Fe19  1  0.00021050  0.10129650  0.44684950  1
  Fe  Fe20  1  0.00175300  0.12434200  0.24131100  1
  Fe  Fe21  1  0.08239900  0.12965500  0.03949600  1
  Fe  Fe22  1  0.58239900  0.37034500  0.46050400  1
  Fe  Fe23  1  0.50175300  0.37565800  0.25868900  1
  Fe  Fe24  1  0.50021050  0.39870350  0.05315050  1
  Fe  Fe25  1  0.00021050  0.60129650  0.05315050  1
  Fe  Fe26  1  0.00175300  0.62434200  0.25868900  1
  Fe  Fe27  1  0.58239900  0.87034500  0.03949600  1
  Fe  Fe28  1  0.58239900  0.12965500  0.96050400  1
  Fe  Fe29  1  0.00175300  0.37565800  0.74131100  1
  Fe  Fe30  1  0.00021050  0.39870350  0.94684950  1
  Fe  Fe31  1  0.50021050  0.60129650  0.94684950  1
  Fe  Fe32  1  0.50175300  0.62434200  0.74131100  1
  Fe  Fe33  1  0.58239900  0.62965500  0.53949600  1
  Fe  Fe34  1  0.08239900  0.87034500  0.96050400  1
  Fe  Fe35  1  0.00175300  0.87565800  0.75868900  1
  Fe  Fe36  1  0.00021050  0.89870350  0.55315050  1
  Fe  Fe37  1  0.50021050  0.10129650  0.55315050  1
  Fe  Fe38  1  0.50175300  0.12434200  0.75868900  1
  Fe  Fe39  1  0.08239900  0.37034500  0.53949600  1
  O  O40  1  0.31575800  0.00000000  0.00000000  1
  O  O41  1  0.81575800  0.00000000  0.00000000  1
  O  O42  1  0.99538400  0.64065700  0.36668100  1
  O  O43  1  0.41252000  0.72570000  0.46218500  1
  O  O44  1  0.25662850  0.74760050  0.24983050  1
  O  O45  1  0.49114300  0.89185400  0.35161200  1
  O  O46  1  0.89192350  0.92392150  0.45222650  1
  O  O47  1  0.24644600  0.99795300  0.23637600  1
  O  O48  1  0.74644600  0.00204700  0.23637600  1
  O  O49  1  0.39192350  0.07607850  0.45222650  1
  O  O50  1  0.99114300  0.10814600  0.35161200  1
  O  O51  1  0.99538400  0.14065700  0.13331900  1
  O  O52  1  0.41252000  0.22570000  0.03781500  1
  O  O53  1  0.75662850  0.25239950  0.24983050  1
  O  O54  1  0.25662850  0.24760050  0.25016950  1
  O  O55  1  0.91252000  0.27430000  0.46218500  1
  O  O56  1  0.49538400  0.35934300  0.36668100  1
  O  O57  1  0.49114300  0.39185400  0.14838800  1
  O  O58  1  0.89192350  0.42392150  0.04777350  1
  O  O59  1  0.24644600  0.49795300  0.26362400  1
  O  O60  1  0.74644600  0.50204700  0.26362400  1
  O  O61  1  0.39192350  0.57607850  0.04777350  1
  O  O62  1  0.99114300  0.60814600  0.14838800  1
  O  O63  1  0.75662850  0.75239950  0.25016950  1
  O  O64  1  0.91252000  0.77430000  0.03781500  1
  O  O65  1  0.49538400  0.85934300  0.13331900  1
  O  O66  1  0.81575800  0.50000000  0.50000000  1
  O  O67  1  0.31575800  0.50000000  0.50000000  1
  O  O68  1  0.49538400  0.14065700  0.86668100  1
  O  O69  1  0.91252000  0.22570000  0.96218500  1
  O  O70  1  0.75662850  0.24760050  0.74983050  1
  O  O71  1  0.99114300  0.39185400  0.85161200  1
  O  O72  1  0.39192350  0.42392150  0.95222650  1
  O  O73  1  0.74644600  0.49795300  0.73637600  1
  O  O74  1  0.24644600  0.50204700  0.73637600  1
  O  O75  1  0.89192350  0.57607850  0.95222650  1
  O  O76  1  0.49114300  0.60814600  0.85161200  1
  O  O77  1  0.49538400  0.64065700  0.63331900  1
  O  O78  1  0.91252000  0.72570000  0.53781500  1
  O  O79  1  0.25662850  0.75239950  0.74983050  1
  O  O80  1  0.75662850  0.74760050  0.75016950  1
  O  O81  1  0.41252000  0.77430000  0.96218500  1
  O  O82  1  0.99538400  0.85934300  0.86668100  1
  O  O83  1  0.99114300  0.89185400  0.64838800  1
  O  O84  1  0.39192350  0.92392150  0.54777350  1
  O  O85  1  0.74644600  0.99795300  0.76362400  1
  O  O86  1  0.24644600  0.00204700  0.76362400  1
  O  O87  1  0.89192350  0.07607850  0.54777350  1
  O  O88  1  0.49114300  0.10814600  0.64838800  1
  O  O89  1  0.25662850  0.25239950  0.75016950  1
  O  O90  1  0.41252000  0.27430000  0.53781500  1
  O  O91  1  0.99538400  0.35934300  0.63331900  1
