# generated using pymatgen
data_Cr(SO4)2
_symmetry_space_group_name_H-M   'P 1'
_cell_length_a   8.29303138
_cell_length_b   8.29303138
_cell_length_c   22.28208980
_cell_angle_alpha   90.00000000
_cell_angle_beta   90.00000000
_cell_angle_gamma   120.00000000
_symmetry_Int_Tables_number   1
_chemical_formula_structural   Cr(SO4)2
_chemical_formula_sum   'Cr9 S18 O72'
_cell_volume   1327.12909109
_cell_formula_units_Z   9
loop_
 _symmetry_equiv_pos_site_id
 _symmetry_equiv_pos_as_xyz
  1  'x, y, z'
loop_
 _atom_site_type_symbol
 _atom_site_label
 _atom_site_symmetry_multiplicity
 _atom_site_fract_x
 _atom_site_fract_y
 _atom_site_fract_z
 _atom_site_occupancy
  Cr  Cr0  1  0.00000000  0.00000000  0.14950800  1
  Cr  Cr1  1  0.33333333  0.66666667  0.31044967  1
  Cr  Cr2  1  0.66666667  0.33333333  0.18370233  1
  Cr  Cr3  1  0.66666667  0.33333333  0.48284133  1
  Cr  Cr4  1  0.00000000  0.00000000  0.64378300  1
  Cr  Cr5  1  0.33333333  0.66666667  0.51703567  1
  Cr  Cr6  1  0.33333333  0.66666667  0.81617467  1
  Cr  Cr7  1  0.66666667  0.33333333  0.97711633  1
  Cr  Cr8  1  0.00000000  0.00000000  0.85036900  1
  S  S9  1  0.37485900  0.33556300  0.08443700  1
  S  S10  1  0.66443700  0.03929600  0.08443700  1
  S  S11  1  0.96070400  0.62514100  0.08443700  1
  S  S12  1  0.70916133  0.71225567  0.25027867  1
  S  S13  1  0.00309433  0.29083867  0.25027867  1
  S  S14  1  0.28774433  0.99690567  0.25027867  1
  S  S15  1  0.04152567  0.66889633  0.41777033  1
  S  S16  1  0.33110367  0.37262933  0.41777033  1
  S  S17  1  0.62737067  0.95847433  0.41777033  1
  S  S18  1  0.37582800  0.04558900  0.58361200  1
  S  S19  1  0.66976100  0.62417200  0.58361200  1
  S  S20  1  0.95441100  0.33023900  0.58361200  1
  S  S21  1  0.70819233  0.00222967  0.75110367  1
  S  S22  1  0.99777033  0.70596267  0.75110367  1
  S  S23  1  0.29403733  0.29180767  0.75110367  1
  S  S24  1  0.04249467  0.37892233  0.91694533  1
  S  S25  1  0.33642767  0.95750533  0.91694533  1
  S  S26  1  0.62107767  0.66357233  0.91694533  1
  O  O27  1  0.20423700  0.00968000  0.30606200  1
  O  O28  1  0.80544300  0.79576300  0.30606200  1
  O  O29  1  0.23039567  0.13879333  0.09909333  1
  O  O30  1  0.99032000  0.19455700  0.30606200  1
  O  O31  1  0.52421800  0.41284400  0.13202900  1
  O  O32  1  0.29755800  0.45787800  0.08011600  1
  O  O33  1  0.54212200  0.83968000  0.08011600  1
  O  O34  1  0.86120667  0.09160233  0.09909333  1
  O  O35  1  0.16032000  0.70244200  0.08011600  1
  O  O36  1  0.74859067  0.56051233  0.23337133  1
  O  O37  1  0.77287133  0.85443867  0.20076667  1
  O  O38  1  0.08156733  0.22712867  0.20076667  1
  O  O39  1  0.58715600  0.11137400  0.13202900  1
  O  O40  1  0.88862600  0.47578200  0.13202900  1
  O  O41  1  0.90839767  0.76960433  0.09909333  1
  O  O42  1  0.50355633  0.63217867  0.25382367  1
  O  O43  1  0.81192167  0.25140933  0.23337133  1
  O  O44  1  0.12862233  0.49644367  0.25382367  1
  O  O45  1  0.36782133  0.87137767  0.25382367  1
  O  O46  1  0.14556133  0.91843267  0.20076667  1
  O  O47  1  0.67633833  0.13617967  0.02712167  1
  O  O48  1  0.43948767  0.18807833  0.23337133  1
  O  O49  1  0.86382033  0.54015867  0.02712167  1
  O  O50  1  0.45984133  0.32366167  0.02712167  1
  O  O51  1  0.87090367  0.34301333  0.63939533  1
  O  O52  1  0.47210967  0.12909633  0.63939533  1
  O  O53  1  0.89706233  0.47212667  0.43242667  1
  O  O54  1  0.65698667  0.52789033  0.63939533  1
  O  O55  1  0.19088467  0.74617733  0.46536233  1
  O  O56  1  0.96422467  0.79121133  0.41344933  1
  O  O57  1  0.20878867  0.17301333  0.41344933  1
  O  O58  1  0.52787333  0.42493567  0.43242667  1
  O  O59  1  0.82698667  0.03577533  0.41344933  1
  O  O60  1  0.41525733  0.89384567  0.56670467  1
  O  O61  1  0.43953800  0.18777200  0.53410000  1
  O  O62  1  0.74823400  0.56046200  0.53410000  1
  O  O63  1  0.25382267  0.44470733  0.46536233  1
  O  O64  1  0.55529267  0.80911533  0.46536233  1
  O  O65  1  0.57506433  0.10293767  0.43242667  1
  O  O66  1  0.17022300  0.96551200  0.58715700  1
  O  O67  1  0.47858833  0.58474267  0.56670467  1
  O  O68  1  0.79528900  0.82977700  0.58715700  1
  O  O69  1  0.03448800  0.20471100  0.58715700  1
  O  O70  1  0.81222800  0.25176600  0.53410000  1
  O  O71  1  0.34300500  0.46951300  0.36045500  1
  O  O72  1  0.10615433  0.52141167  0.56670467  1
  O  O73  1  0.53048700  0.87349200  0.36045500  1
  O  O74  1  0.12650800  0.65699500  0.36045500  1
  O  O75  1  0.53757033  0.67634667  0.97272867  1
  O  O76  1  0.13877633  0.46242967  0.97272867  1
  O  O77  1  0.56372900  0.80546000  0.76576000  1
  O  O78  1  0.32365333  0.86122367  0.97272867  1
  O  O79  1  0.85755133  0.07951067  0.79869567  1
  O  O80  1  0.63089133  0.12454467  0.74678267  1
  O  O81  1  0.87545533  0.50634667  0.74678267  1
  O  O82  1  0.19454000  0.75826900  0.76576000  1
  O  O83  1  0.49365333  0.36910867  0.74678267  1
  O  O84  1  0.08192400  0.22717900  0.90003800  1
  O  O85  1  0.10620467  0.52110533  0.86743333  1
  O  O86  1  0.41490067  0.89379533  0.86743333  1
  O  O87  1  0.92048933  0.77804067  0.79869567  1
  O  O88  1  0.22195933  0.14244867  0.79869567  1
  O  O89  1  0.24173100  0.43627100  0.76576000  1
  O  O90  1  0.83688967  0.29884533  0.92049033  1
  O  O91  1  0.14525500  0.91807600  0.90003800  1
  O  O92  1  0.46195567  0.16311033  0.92049033  1
  O  O93  1  0.70115467  0.53804433  0.92049033  1
  O  O94  1  0.47889467  0.58509933  0.86743333  1
  O  O95  1  0.00967167  0.80284633  0.69378833  1
  O  O96  1  0.77282100  0.85474500  0.90003800  1
  O  O97  1  0.19715367  0.20682533  0.69378833  1
  O  O98  1  0.79317467  0.99032833  0.69378833  1
