# generated using pymatgen
data_Li2VSi4O11
_symmetry_space_group_name_H-M   'P 1'
_cell_length_a   10.59696000
_cell_length_b   10.59696000
_cell_length_c   7.81440400
_cell_angle_alpha   90.00000000
_cell_angle_beta   90.00000000
_cell_angle_gamma   90.00000000
_symmetry_Int_Tables_number   1
_chemical_formula_structural   Li2VSi4O11
_chemical_formula_sum   'Li8 V4 Si16 O44'
_cell_volume   877.52288295
_cell_formula_units_Z   4
loop_
 _symmetry_equiv_pos_site_id
 _symmetry_equiv_pos_as_xyz
  1  'x, y, z'
loop_
 _atom_site_type_symbol
 _atom_site_label
 _atom_site_symmetry_multiplicity
 _atom_site_fract_x
 _atom_site_fract_y
 _atom_site_fract_z
 _atom_site_occupancy
  Li  Li0  1  0.85173700  0.11901900  0.50000000  1
  Li  Li1  1  0.61901900  0.64826300  0.00000000  1
  Li  Li2  1  0.38098100  0.35173700  0.00000000  1
  Li  Li3  1  0.14826300  0.88098100  0.50000000  1
  Li  Li4  1  0.35173700  0.61901900  0.00000000  1
  Li  Li5  1  0.11901900  0.14826300  0.50000000  1
  Li  Li6  1  0.88098100  0.85173700  0.50000000  1
  Li  Li7  1  0.64826300  0.38098100  0.00000000  1
  V  V8  1  0.00000000  0.00000000  0.76179300  1
  V  V9  1  0.00000000  0.00000000  0.23820700  1
  V  V10  1  0.50000000  0.50000000  0.26179300  1
  V  V11  1  0.50000000  0.50000000  0.73820700  1
  Si  Si12  1  0.69513000  0.97767500  0.80627400  1
  Si  Si13  1  0.69513000  0.97767500  0.19372600  1
  Si  Si14  1  0.52232500  0.19513000  0.30627400  1
  Si  Si15  1  0.52232500  0.19513000  0.69372600  1
  Si  Si16  1  0.47767500  0.80487000  0.69372600  1
  Si  Si17  1  0.47767500  0.80487000  0.30627400  1
  Si  Si18  1  0.30487000  0.02232500  0.19372600  1
  Si  Si19  1  0.30487000  0.02232500  0.80627400  1
  Si  Si20  1  0.19513000  0.47767500  0.30627400  1
  Si  Si21  1  0.19513000  0.47767500  0.69372600  1
  Si  Si22  1  0.02232500  0.69513000  0.80627400  1
  Si  Si23  1  0.02232500  0.69513000  0.19372600  1
  Si  Si24  1  0.97767500  0.30487000  0.19372600  1
  Si  Si25  1  0.97767500  0.30487000  0.80627400  1
  Si  Si26  1  0.80487000  0.52232500  0.69372600  1
  Si  Si27  1  0.80487000  0.52232500  0.30627400  1
  O  O28  1  0.00000000  0.00000000  0.00000000  1
  O  O29  1  0.00000000  0.00000000  0.50000000  1
  O  O30  1  0.82767700  0.93059000  0.72621100  1
  O  O31  1  0.82767700  0.93059000  0.27378900  1
  O  O32  1  0.70933050  0.03278850  0.00000000  1
  O  O33  1  0.63994100  0.09337400  0.68785900  1
  O  O34  1  0.63994100  0.09337400  0.31214100  1
  O  O35  1  0.59337400  0.86005900  0.81214100  1
  O  O36  1  0.59337400  0.86005900  0.18785900  1
  O  O37  1  0.56941000  0.32767700  0.22621100  1
  O  O38  1  0.56941000  0.32767700  0.77378900  1
  O  O39  1  0.53278850  0.79066950  0.50000000  1
  O  O40  1  0.46721150  0.20933050  0.50000000  1
  O  O41  1  0.43059000  0.67232300  0.22621100  1
  O  O42  1  0.43059000  0.67232300  0.77378900  1
  O  O43  1  0.40662600  0.13994100  0.81214100  1
  O  O44  1  0.40662600  0.13994100  0.18785900  1
  O  O45  1  0.36005900  0.90662600  0.31214100  1
  O  O46  1  0.36005900  0.90662600  0.68785900  1
  O  O47  1  0.29066950  0.96721150  0.00000000  1
  O  O48  1  0.17232300  0.06941000  0.72621100  1
  O  O49  1  0.17232300  0.06941000  0.27378900  1
  O  O50  1  0.50000000  0.50000000  0.50000000  1
  O  O51  1  0.50000000  0.50000000  0.00000000  1
  O  O52  1  0.32767700  0.43059000  0.22621100  1
  O  O53  1  0.32767700  0.43059000  0.77378900  1
  O  O54  1  0.20933050  0.53278850  0.50000000  1
  O  O55  1  0.13994100  0.59337400  0.18785900  1
  O  O56  1  0.13994100  0.59337400  0.81214100  1
  O  O57  1  0.09337400  0.36005900  0.31214100  1
  O  O58  1  0.09337400  0.36005900  0.68785900  1
  O  O59  1  0.06941000  0.82767700  0.72621100  1
  O  O60  1  0.06941000  0.82767700  0.27378900  1
  O  O61  1  0.03278850  0.29066950  0.00000000  1
  O  O62  1  0.96721150  0.70933050  0.00000000  1
  O  O63  1  0.93059000  0.17232300  0.72621100  1
  O  O64  1  0.93059000  0.17232300  0.27378900  1
  O  O65  1  0.90662600  0.63994100  0.31214100  1
  O  O66  1  0.90662600  0.63994100  0.68785900  1
  O  O67  1  0.86005900  0.40662600  0.81214100  1
  O  O68  1  0.86005900  0.40662600  0.18785900  1
  O  O69  1  0.79066950  0.46721150  0.50000000  1
  O  O70  1  0.67232300  0.56941000  0.22621100  1
  O  O71  1  0.67232300  0.56941000  0.77378900  1
