# generated using pymatgen
data_Mn3Cr(PO4)4
_symmetry_space_group_name_H-M   'P 1'
_cell_length_a   4.86318200
_cell_length_b   5.97186400
_cell_length_c   9.85736162
_cell_angle_alpha   90.00000000
_cell_angle_beta   90.72199966
_cell_angle_gamma   90.00000000
_symmetry_Int_Tables_number   1
_chemical_formula_structural   Mn3Cr(PO4)4
_chemical_formula_sum   'Mn3 Cr1 P4 O16'
_cell_volume   286.25734492
_cell_formula_units_Z   1
loop_
 _symmetry_equiv_pos_site_id
 _symmetry_equiv_pos_as_xyz
  1  'x, y, z'
loop_
 _atom_site_type_symbol
 _atom_site_label
 _atom_site_symmetry_multiplicity
 _atom_site_fract_x
 _atom_site_fract_y
 _atom_site_fract_z
 _atom_site_occupancy
  Mn  Mn0  1  0.93162800  0.50000000  0.71542400  1
  Mn  Mn1  1  0.56549700  0.50000000  0.21960600  1
  Mn  Mn2  1  0.43449500  0.00000000  0.78327500  1
  Cr  Cr3  1  0.03783100  0.00000000  0.27557200  1
  P  P4  1  0.90681500  0.00000000  0.59784900  1
  P  P5  1  0.58829500  0.00000000  0.09651300  1
  P  P6  1  0.41622500  0.50000000  0.90116200  1
  P  P7  1  0.09065600  0.50000000  0.40172800  1
  O  O8  1  0.83806800  0.00000000  0.44655900  1
  O  O9  1  0.76550200  0.79881200  0.67131200  1
  O  O10  1  0.76550200  0.20118800  0.67131200  1
  O  O11  1  0.77409700  0.50000000  0.38288000  1
  O  O12  1  0.72952000  0.50000000  0.88116500  1
  O  O13  1  0.74382700  0.80162200  0.17226600  1
  O  O14  1  0.74382700  0.19837800  0.17226600  1
  O  O15  1  0.65914000  0.00000000  0.94562500  1
  O  O16  1  0.35807400  0.50000000  0.05455100  1
  O  O17  1  0.26910100  0.29852100  0.83047800  1
  O  O18  1  0.26910100  0.70147900  0.83047800  1
  O  O19  1  0.27974100  0.00000000  0.11576100  1
  O  O20  1  0.22180500  0.00000000  0.61898300  1
  O  O21  1  0.22993200  0.29574300  0.33007300  1
  O  O22  1  0.22993200  0.70425700  0.33007300  1
  O  O23  1  0.15139200  0.50000000  0.55508800  1
