# generated using pymatgen
data_Li2SiNiO4
_symmetry_space_group_name_H-M   'P 1'
_cell_length_a   4.91842054
_cell_length_b   5.36762504
_cell_length_c   6.31138400
_cell_angle_alpha   90.00000000
_cell_angle_beta   90.00000000
_cell_angle_gamma   90.00000000
_symmetry_Int_Tables_number   1
_chemical_formula_structural   Li2SiNiO4
_chemical_formula_sum   'Li4 Si2 Ni2 O8'
_cell_volume   166.62203506
_cell_formula_units_Z   2
loop_
 _symmetry_equiv_pos_site_id
 _symmetry_equiv_pos_as_xyz
  1  'x, y, z'
loop_
 _atom_site_type_symbol
 _atom_site_label
 _atom_site_symmetry_multiplicity
 _atom_site_fract_x
 _atom_site_fract_y
 _atom_site_fract_z
 _atom_site_occupancy
  Li  Li0  1  0.00798800  0.17149475  0.74999725  1
  Li  Li1  1  0.50798800  0.82850525  0.75000275  1
  Li  Li2  1  0.00798800  0.17149475  0.25000275  1
  Li  Li3  1  0.50798800  0.82850525  0.24999725  1
  Si  Si4  1  0.49766800  0.33308925  0.50000000  1
  Si  Si5  1  0.99766800  0.66691075  0.00000000  1
  Ni  Ni6  1  0.01101400  0.67599075  0.50000000  1
  Ni  Ni7  1  0.51101400  0.32400925  0.00000000  1
  O  O8  1  0.16195900  0.33318275  0.50000000  1
  O  O9  1  0.66195900  0.66681725  0.00000000  1
  O  O10  1  0.60572800  0.62553275  0.50000000  1
  O  O11  1  0.10572800  0.37446725  0.00000000  1
  O  O12  1  0.10372400  0.81408175  0.78521675  1
  O  O13  1  0.60372400  0.18591825  0.71478325  1
  O  O14  1  0.60372400  0.18591825  0.28521675  1
  O  O15  1  0.10372400  0.81408175  0.21478325  1
