# generated using pymatgen
data_Li4Mn2Fe3Ni3O16
_symmetry_space_group_name_H-M   'P 1'
_cell_length_a   10.13875400
_cell_length_b   5.76112400
_cell_length_c   9.37816769
_cell_angle_alpha   90.00000000
_cell_angle_beta   91.71292111
_cell_angle_gamma   90.00000000
_symmetry_Int_Tables_number   1
_chemical_formula_structural   Li4Mn2Fe3Ni3O16
_chemical_formula_sum   'Li8 Mn4 Fe6 Ni6 O32'
_cell_volume   547.53979906
_cell_formula_units_Z   2
loop_
 _symmetry_equiv_pos_site_id
 _symmetry_equiv_pos_as_xyz
  1  'x, y, z'
loop_
 _atom_site_type_symbol
 _atom_site_label
 _atom_site_symmetry_multiplicity
 _atom_site_fract_x
 _atom_site_fract_y
 _atom_site_fract_z
 _atom_site_occupancy
  Li  Li0  1  0.66218200  0.00000000  0.89528300  1
  Li  Li1  1  0.99678400  0.00000000  0.99198400  1
  Li  Li2  1  0.99769200  0.00000000  0.49476400  1
  Li  Li3  1  0.83377400  0.50000000  0.40056700  1
  Li  Li4  1  0.16218200  0.50000000  0.89528300  1
  Li  Li5  1  0.49678400  0.50000000  0.99198400  1
  Li  Li6  1  0.49769200  0.50000000  0.49476400  1
  Li  Li7  1  0.33377400  0.00000000  0.40056700  1
  Mn  Mn8  1  0.67206900  0.00000000  0.48697300  1
  Mn  Mn9  1  0.83220300  0.50000000  0.98422500  1
  Mn  Mn10  1  0.17206900  0.50000000  0.48697300  1
  Mn  Mn11  1  0.33220300  0.00000000  0.98422500  1
  Fe  Fe12  1  0.58487150  0.24541150  0.21321200  1
  Fe  Fe13  1  0.58487150  0.75458850  0.21321200  1
  Fe  Fe14  1  0.66927200  0.50000000  0.71367600  1
  Fe  Fe15  1  0.08487150  0.74541150  0.21321200  1
  Fe  Fe16  1  0.08487150  0.25458850  0.21321200  1
  Fe  Fe17  1  0.16927200  0.00000000  0.71367600  1
  Ni  Ni18  1  0.82927600  0.00000000  0.21117300  1
  Ni  Ni19  1  0.91333150  0.74607250  0.71256000  1
  Ni  Ni20  1  0.91333150  0.25392750  0.71256000  1
  Ni  Ni21  1  0.32927600  0.50000000  0.21117300  1
  Ni  Ni22  1  0.41333150  0.24607250  0.71256000  1
  Ni  Ni23  1  0.41333150  0.75392750  0.71256000  1
  O  O24  1  0.59191300  0.25284000  0.59617600  1
  O  O25  1  0.52029500  0.00000000  0.34776200  1
  O  O26  1  0.67174200  0.00000000  0.10571200  1
  O  O27  1  0.99304200  0.00000000  0.30403300  1
  O  O28  1  0.99378400  0.00000000  0.80331500  1
  O  O29  1  0.59191300  0.74716000  0.59617600  1
  O  O30  1  0.73981150  0.22089450  0.34861900  1
  O  O31  1  0.73981150  0.77910550  0.34861900  1
  O  O32  1  0.66953200  0.50000000  0.10000400  1
  O  O33  1  0.83839200  0.00000000  0.59496000  1
  O  O34  1  0.75185100  0.71696800  0.84658700  1
  O  O35  1  0.75185100  0.28303200  0.84658700  1
  O  O36  1  0.83842900  0.50000000  0.61089800  1
  O  O37  1  0.91758600  0.74610200  0.09245400  1
  O  O38  1  0.97537100  0.50000000  0.84340700  1
  O  O39  1  0.91758600  0.25389800  0.09245400  1
  O  O40  1  0.09191300  0.75284000  0.59617600  1
  O  O41  1  0.02029500  0.50000000  0.34776200  1
  O  O42  1  0.17174200  0.50000000  0.10571200  1
  O  O43  1  0.49304200  0.50000000  0.30403300  1
  O  O44  1  0.49378400  0.50000000  0.80331500  1
  O  O45  1  0.09191300  0.24716000  0.59617600  1
  O  O46  1  0.23981150  0.72089450  0.34861900  1
  O  O47  1  0.23981150  0.27910550  0.34861900  1
  O  O48  1  0.16953200  0.00000000  0.10000400  1
  O  O49  1  0.33839200  0.50000000  0.59496000  1
  O  O50  1  0.25185100  0.21696800  0.84658700  1
  O  O51  1  0.25185100  0.78303200  0.84658700  1
  O  O52  1  0.33842900  0.00000000  0.61089800  1
  O  O53  1  0.41758600  0.24610200  0.09245400  1
  O  O54  1  0.47537100  0.00000000  0.84340700  1
  O  O55  1  0.41758600  0.75389800  0.09245400  1
