# generated using pymatgen
data_TiMnFe(PO4)3
_symmetry_space_group_name_H-M   'P 1'
_cell_length_a   8.64980989
_cell_length_b   8.64980989
_cell_length_c   21.19391681
_cell_angle_alpha   90.00000000
_cell_angle_beta   90.00000000
_cell_angle_gamma   120.00000000
_symmetry_Int_Tables_number   1
_chemical_formula_structural   TiMnFe(PO4)3
_chemical_formula_sum   'Ti6 Mn6 Fe6 P18 O72'
_cell_volume   1373.26699280
_cell_formula_units_Z   6
loop_
 _symmetry_equiv_pos_site_id
 _symmetry_equiv_pos_as_xyz
  1  'x, y, z'
loop_
 _atom_site_type_symbol
 _atom_site_label
 _atom_site_symmetry_multiplicity
 _atom_site_fract_x
 _atom_site_fract_y
 _atom_site_fract_z
 _atom_site_occupancy
  Ti  Ti0  1  0.66666667  0.33333333  0.18798033  1
  Ti  Ti1  1  0.33333333  0.66666667  0.02131367  1
  Ti  Ti2  1  0.33333333  0.66666667  0.52131367  1
  Ti  Ti3  1  0.00000000  0.00000000  0.35464700  1
  Ti  Ti4  1  0.00000000  0.00000000  0.85464700  1
  Ti  Ti5  1  0.66666667  0.33333333  0.68798033  1
  Mn  Mn6  1  0.00000000  0.00000000  0.00238500  1
  Mn  Mn7  1  0.33333333  0.66666667  0.16905167  1
  Mn  Mn8  1  0.66666667  0.33333333  0.33571833  1
  Mn  Mn9  1  0.00000000  0.00000000  0.50238500  1
  Mn  Mn10  1  0.33333333  0.66666667  0.66905167  1
  Mn  Mn11  1  0.66666667  0.33333333  0.83571833  1
  Fe  Fe12  1  0.33333333  0.66666667  0.31255167  1
  Fe  Fe13  1  0.00000000  0.00000000  0.14588500  1
  Fe  Fe14  1  0.00000000  0.00000000  0.64588500  1
  Fe  Fe15  1  0.66666667  0.33333333  0.47921833  1
  Fe  Fe16  1  0.66666667  0.33333333  0.97921833  1
  Fe  Fe17  1  0.33333333  0.66666667  0.81255167  1
  P  P18  1  0.70660133  0.70683267  0.24922367  1
  P  P19  1  0.29316733  0.99976867  0.24922367  1
  P  P20  1  0.00023133  0.29339867  0.24922367  1
  P  P21  1  0.66689800  0.04016600  0.08255700  1
  P  P22  1  0.37326800  0.33310200  0.08255700  1
  P  P23  1  0.95983400  0.62673200  0.08255700  1
  P  P24  1  0.37326800  0.04016600  0.58255700  1
  P  P25  1  0.95983400  0.33310200  0.58255700  1
  P  P26  1  0.66689800  0.62673200  0.58255700  1
  P  P27  1  0.33356467  0.37349933  0.41589033  1
  P  P28  1  0.03993467  0.66643533  0.41589033  1
  P  P29  1  0.62650067  0.96006533  0.41589033  1
  P  P30  1  0.03993467  0.37349933  0.91589033  1
  P  P31  1  0.62650067  0.66643533  0.91589033  1
  P  P32  1  0.33356467  0.96006533  0.91589033  1
  P  P33  1  0.00023133  0.70683267  0.74922367  1
  P  P34  1  0.70660133  0.99976867  0.74922367  1
  P  P35  1  0.29316733  0.29339867  0.74922367  1
  O  O36  1  0.86212367  0.52663533  0.02340333  1
  O  O37  1  0.66451167  0.13787633  0.02340333  1
  O  O38  1  0.68851433  0.51824567  0.25482067  1
  O  O39  1  0.47336467  0.33548833  0.02340333  1
  O  O40  1  0.80669800  0.80454300  0.19007000  1
  O  O41  1  0.51915767  0.68655333  0.24546833  1
  O  O42  1  0.48175433  0.17026867  0.25482067  1
  O  O43  1  0.31344667  0.83260433  0.24546833  1
  O  O44  1  0.66472600  0.14385700  0.14277800  1
  O  O45  1  0.16739567  0.48084233  0.24546833  1
  O  O46  1  0.83406233  0.01988667  0.07880167  1
  O  O47  1  0.47913100  0.33527400  0.14277800  1
  O  O48  1  0.19545700  0.00215500  0.19007000  1
  O  O49  1  0.82973133  0.31148567  0.25482067  1
  O  O50  1  0.49639800  0.85157900  0.08815400  1
  O  O51  1  0.99784500  0.19330200  0.19007000  1
  O  O52  1  0.35518100  0.50360200  0.08815400  1
  O  O53  1  0.18582433  0.16593767  0.07880167  1
  O  O54  1  0.14842100  0.64481900  0.08815400  1
  O  O55  1  0.85614300  0.52086900  0.14277800  1
  O  O56  1  0.18947633  0.00194067  0.30944467  1
  O  O57  1  0.98011333  0.81417567  0.07880167  1
  O  O58  1  0.99805933  0.18753567  0.30944467  1
  O  O59  1  0.81246433  0.81052367  0.30944467  1
  O  O60  1  0.52879033  0.85996867  0.35673667  1
  O  O61  1  0.33117833  0.47120967  0.35673667  1
  O  O62  1  0.35518100  0.85157900  0.58815400  1
  O  O63  1  0.14003133  0.66882167  0.35673667  1
  O  O64  1  0.47336467  0.13787633  0.52340333  1
  O  O65  1  0.18582433  0.01988667  0.57880167  1
  O  O66  1  0.14842100  0.50360200  0.58815400  1
  O  O67  1  0.98011333  0.16593767  0.57880167  1
  O  O68  1  0.33139267  0.47719033  0.47611133  1
  O  O69  1  0.83406233  0.81417567  0.57880167  1
  O  O70  1  0.50072900  0.35322000  0.41213500  1
  O  O71  1  0.14579767  0.66860733  0.47611133  1
  O  O72  1  0.86212367  0.33548833  0.52340333  1
  O  O73  1  0.49639800  0.64481900  0.58815400  1
  O  O74  1  0.16306467  0.18491233  0.42148733  1
  O  O75  1  0.66451167  0.52663533  0.52340333  1
  O  O76  1  0.02184767  0.83693533  0.42148733  1
  O  O77  1  0.85249100  0.49927100  0.41213500  1
  O  O78  1  0.81508767  0.97815233  0.42148733  1
  O  O79  1  0.52280967  0.85420233  0.47611133  1
  O  O80  1  0.85614300  0.33527400  0.64277800  1
  O  O81  1  0.64678000  0.14750900  0.41213500  1
  O  O82  1  0.66472600  0.52086900  0.64277800  1
  O  O83  1  0.47913100  0.14385700  0.64277800  1
  O  O84  1  0.19545700  0.19330200  0.69007000  1
  O  O85  1  0.99784500  0.80454300  0.69007000  1
  O  O86  1  0.02184767  0.18491233  0.92148733  1
  O  O87  1  0.80669800  0.00215500  0.69007000  1
  O  O88  1  0.14003133  0.47120967  0.85673667  1
  O  O89  1  0.85249100  0.35322000  0.91213500  1
  O  O90  1  0.81508767  0.83693533  0.92148733  1
  O  O91  1  0.64678000  0.49927100  0.91213500  1
  O  O92  1  0.99805933  0.81052367  0.80944467  1
  O  O93  1  0.50072900  0.14750900  0.91213500  1
  O  O94  1  0.16739567  0.68655333  0.74546833  1
  O  O95  1  0.81246433  0.00194067  0.80944467  1
  O  O96  1  0.52879033  0.66882167  0.85673667  1
  O  O97  1  0.16306467  0.97815233  0.92148733  1
  O  O98  1  0.82973133  0.51824567  0.75482067  1
  O  O99  1  0.33117833  0.85996867  0.85673667  1
  O  O100  1  0.68851433  0.17026867  0.75482067  1
  O  O101  1  0.51915767  0.83260433  0.74546833  1
  O  O102  1  0.48175433  0.31148567  0.75482067  1
  O  O103  1  0.18947633  0.18753567  0.80944467  1
  O  O104  1  0.52280967  0.66860733  0.97611133  1
  O  O105  1  0.31344667  0.48084233  0.74546833  1
  O  O106  1  0.33139267  0.85420233  0.97611133  1
  O  O107  1  0.14579767  0.47719033  0.97611133  1
