# generated using pymatgen
data_Li2Cr3O6
_symmetry_space_group_name_H-M   'P 1'
_cell_length_a   8.84332200
_cell_length_b   5.10647000
_cell_length_c   10.35109880
_cell_angle_alpha   90.00000000
_cell_angle_beta   106.88323486
_cell_angle_gamma   90.00000000
_symmetry_Int_Tables_number   1
_chemical_formula_structural   Li2Cr3O6
_chemical_formula_sum   'Li8 Cr12 O24'
_cell_volume   447.28939228
_cell_formula_units_Z   4
loop_
 _symmetry_equiv_pos_site_id
 _symmetry_equiv_pos_as_xyz
  1  'x, y, z'
loop_
 _atom_site_type_symbol
 _atom_site_label
 _atom_site_symmetry_multiplicity
 _atom_site_fract_x
 _atom_site_fract_y
 _atom_site_fract_z
 _atom_site_occupancy
  Li  Li0  1  0.49721850  0.59324950  0.74151100  1
  Li  Li1  1  0.65820000  0.92029500  0.24015200  1
  Li  Li2  1  0.99721850  0.90675050  0.24151100  1
  Li  Li3  1  0.15820000  0.57970500  0.74015200  1
  Li  Li4  1  0.99721850  0.09324950  0.74151100  1
  Li  Li5  1  0.15820000  0.42029500  0.24015200  1
  Li  Li6  1  0.49721850  0.40675050  0.24151100  1
  Li  Li7  1  0.65820000  0.07970500  0.74015200  1
  Cr  Cr8  1  0.75225450  0.08696950  0.00452400  1
  Cr  Cr9  1  0.41320800  0.91752900  0.49016400  1
  Cr  Cr10  1  0.58647950  0.58205250  0.00462100  1
  Cr  Cr11  1  0.75225450  0.91303050  0.50452400  1
  Cr  Cr12  1  0.91320800  0.58247100  0.99016400  1
  Cr  Cr13  1  0.58647950  0.41794750  0.50462100  1
  Cr  Cr14  1  0.25225450  0.58696950  0.00452400  1
  Cr  Cr15  1  0.91320800  0.41752900  0.49016400  1
  Cr  Cr16  1  0.08647950  0.08205250  0.00462100  1
  Cr  Cr17  1  0.25225450  0.41303050  0.50452400  1
  Cr  Cr18  1  0.41320800  0.08247100  0.99016400  1
  Cr  Cr19  1  0.08647950  0.91794750  0.50462100  1
  O  O20  1  0.78922950  0.76473050  0.10540900  1
  O  O21  1  0.95323950  0.75104450  0.60639800  1
  O  O22  1  0.87777200  0.06639900  0.39535100  1
  O  O23  1  0.05808600  0.41495400  0.89479200  1
  O  O24  1  0.61625200  0.23972900  0.10589800  1
  O  O25  1  0.78922950  0.23526950  0.60540900  1
  O  O26  1  0.70887900  0.59731700  0.39427600  1
  O  O27  1  0.87777200  0.93360100  0.89535100  1
  O  O28  1  0.45323950  0.74895550  0.10639800  1
  O  O29  1  0.61625200  0.76027100  0.60589800  1
  O  O30  1  0.55808600  0.08504600  0.39479200  1
  O  O31  1  0.70887900  0.40268300  0.89427600  1
  O  O32  1  0.28922950  0.26473050  0.10540900  1
  O  O33  1  0.45323950  0.25104450  0.60639800  1
  O  O34  1  0.37777200  0.56639900  0.39535100  1
  O  O35  1  0.55808600  0.91495400  0.89479200  1
  O  O36  1  0.11625200  0.73972900  0.10589800  1
  O  O37  1  0.28922950  0.73526950  0.60540900  1
  O  O38  1  0.20887900  0.09731700  0.39427600  1
  O  O39  1  0.37777200  0.43360100  0.89535100  1
  O  O40  1  0.95323950  0.24895550  0.10639800  1
  O  O41  1  0.11625200  0.26027100  0.60589800  1
  O  O42  1  0.05808600  0.58504600  0.39479200  1
  O  O43  1  0.20887900  0.90268300  0.89427600  1
