# generated using pymatgen
data_Li3Co(NiO3)2
_symmetry_space_group_name_H-M   'P 1'
_cell_length_a   8.74191579
_cell_length_b   4.93521135
_cell_length_c   9.77108240
_cell_angle_alpha   90.00000000
_cell_angle_beta   95.22129570
_cell_angle_gamma   90.00000000
_symmetry_Int_Tables_number   1
_chemical_formula_structural   Li3Co(NiO3)2
_chemical_formula_sum   'Li12 Co4 Ni8 O24'
_cell_volume   419.80659700
_cell_formula_units_Z   4
loop_
 _symmetry_equiv_pos_site_id
 _symmetry_equiv_pos_as_xyz
  1  'x, y, z'
loop_
 _atom_site_type_symbol
 _atom_site_label
 _atom_site_symmetry_multiplicity
 _atom_site_fract_x
 _atom_site_fract_y
 _atom_site_fract_z
 _atom_site_occupancy
  Li  Li0  1  0.32741850  0.14381350  0.74699700  1
  Li  Li1  1  0.50000000  0.63818600  0.75000000  1
  Li  Li2  1  0.67258150  0.14381350  0.75300300  1
  Li  Li3  1  0.32741850  0.85618650  0.24699700  1
  Li  Li4  1  0.50000000  0.36181400  0.25000000  1
  Li  Li5  1  0.67258150  0.85618650  0.25300300  1
  Li  Li6  1  0.82741850  0.64381350  0.74699700  1
  Li  Li7  1  0.00000000  0.13818600  0.75000000  1
  Li  Li8  1  0.17258150  0.64381350  0.75300300  1
  Li  Li9  1  0.82741850  0.35618650  0.24699700  1
  Li  Li10  1  0.00000000  0.86181400  0.25000000  1
  Li  Li11  1  0.17258150  0.35618650  0.25300300  1
  Co  Co12  1  0.25000000  0.75000000  0.50000000  1
  Co  Co13  1  0.25000000  0.25000000  0.00000000  1
  Co  Co14  1  0.75000000  0.25000000  0.50000000  1
  Co  Co15  1  0.75000000  0.75000000  0.00000000  1
  Ni  Ni16  1  0.58259050  0.75370650  0.50004900  1
  Ni  Ni17  1  0.58259050  0.24629350  0.00004900  1
  Ni  Ni18  1  0.41740950  0.75370650  0.99995100  1
  Ni  Ni19  1  0.41740950  0.24629350  0.49995100  1
  Ni  Ni20  1  0.08259050  0.25370650  0.50004900  1
  Ni  Ni21  1  0.08259050  0.74629350  0.00004900  1
  Ni  Ni22  1  0.91740950  0.25370650  0.99995100  1
  Ni  Ni23  1  0.91740950  0.74629350  0.49995100  1
  O  O24  1  0.58332900  0.91135800  0.88945400  1
  O  O25  1  0.59631100  0.59162600  0.10628400  1
  O  O26  1  0.41667100  0.91135800  0.61054600  1
  O  O27  1  0.59631100  0.40837400  0.60628400  1
  O  O28  1  0.40368900  0.59162600  0.39371600  1
  O  O29  1  0.74506700  0.57367100  0.39230800  1
  O  O30  1  0.58332900  0.08864200  0.38945400  1
  O  O31  1  0.40368900  0.40837400  0.89371600  1
  O  O32  1  0.74506700  0.42632900  0.89230800  1
  O  O33  1  0.41667100  0.08864200  0.11054600  1
  O  O34  1  0.25493300  0.57367100  0.10769200  1
  O  O35  1  0.25493300  0.42632900  0.60769200  1
  O  O36  1  0.08332900  0.41135800  0.88945400  1
  O  O37  1  0.09631100  0.09162600  0.10628400  1
  O  O38  1  0.91667100  0.41135800  0.61054600  1
  O  O39  1  0.09631100  0.90837400  0.60628400  1
  O  O40  1  0.90368900  0.09162600  0.39371600  1
  O  O41  1  0.24506700  0.07367100  0.39230800  1
  O  O42  1  0.08332900  0.58864200  0.38945400  1
  O  O43  1  0.90368900  0.90837400  0.89371600  1
  O  O44  1  0.24506700  0.92632900  0.89230800  1
  O  O45  1  0.91667100  0.58864200  0.11054600  1
  O  O46  1  0.75493300  0.07367100  0.10769200  1
  O  O47  1  0.75493300  0.92632900  0.60769200  1
