# generated using pymatgen
data_Li4MnV3O8
_symmetry_space_group_name_H-M   'P 1'
_cell_length_a   10.46941425
_cell_length_b   5.92822600
_cell_length_c   5.94089141
_cell_angle_alpha   90.00000000
_cell_angle_beta   124.23537549
_cell_angle_gamma   90.00000000
_symmetry_Int_Tables_number   1
_chemical_formula_structural   Li4MnV3O8
_chemical_formula_sum   'Li8 Mn2 V6 O16'
_cell_volume   304.83457315
_cell_formula_units_Z   2
loop_
 _symmetry_equiv_pos_site_id
 _symmetry_equiv_pos_as_xyz
  1  'x, y, z'
loop_
 _atom_site_type_symbol
 _atom_site_label
 _atom_site_symmetry_multiplicity
 _atom_site_fract_x
 _atom_site_fract_y
 _atom_site_fract_z
 _atom_site_occupancy
  Li  Li0  1  0.74616600  0.24030100  0.99276400  1
  Li  Li1  1  0.75383400  0.74030100  0.00723600  1
  Li  Li2  1  0.00000000  0.50000000  0.50000000  1
  Li  Li3  1  0.00000000  0.00000000  0.50000000  1
  Li  Li4  1  0.24616600  0.74030100  0.99276400  1
  Li  Li5  1  0.25383400  0.24030100  0.00723600  1
  Li  Li6  1  0.50000000  0.00000000  0.50000000  1
  Li  Li7  1  0.50000000  0.50000000  0.50000000  1
  Mn  Mn8  1  0.00000000  0.00000000  0.00000000  1
  Mn  Mn9  1  0.50000000  0.50000000  0.00000000  1
  V  V10  1  0.00000000  0.50000000  0.00000000  1
  V  V11  1  0.75000000  0.75000000  0.50000000  1
  V  V12  1  0.75000000  0.25000000  0.50000000  1
  V  V13  1  0.50000000  0.00000000  0.00000000  1
  V  V14  1  0.25000000  0.25000000  0.50000000  1
  V  V15  1  0.25000000  0.75000000  0.50000000  1
  O  O16  1  0.51103000  0.25102300  0.24226400  1
  O  O17  1  0.51103000  0.74897700  0.24226400  1
  O  O18  1  0.74366100  0.00000000  0.72690000  1
  O  O19  1  0.76239500  0.50000000  0.75029100  1
  O  O20  1  0.73760500  0.00000000  0.24970900  1
  O  O21  1  0.75633900  0.50000000  0.27310000  1
  O  O22  1  0.98897000  0.75102300  0.75773600  1
  O  O23  1  0.98897000  0.24897700  0.75773600  1
  O  O24  1  0.01103000  0.75102300  0.24226400  1
  O  O25  1  0.01103000  0.24897700  0.24226400  1
  O  O26  1  0.24366100  0.50000000  0.72690000  1
  O  O27  1  0.26239500  0.00000000  0.75029100  1
  O  O28  1  0.23760500  0.50000000  0.24970900  1
  O  O29  1  0.25633900  0.00000000  0.27310000  1
  O  O30  1  0.48897000  0.25102300  0.75773600  1
  O  O31  1  0.48897000  0.74897700  0.75773600  1
