# generated using pymatgen
data_Mn5NiO12
_symmetry_space_group_name_H-M   'P 1'
_cell_length_a   5.02477800
_cell_length_b   8.71499600
_cell_length_c   9.71011407
_cell_angle_alpha   90.00000000
_cell_angle_beta   90.00679752
_cell_angle_gamma   90.00000000
_symmetry_Int_Tables_number   1
_chemical_formula_structural   Mn5NiO12
_chemical_formula_sum   'Mn10 Ni2 O24'
_cell_volume   425.21482702
_cell_formula_units_Z   2
loop_
 _symmetry_equiv_pos_site_id
 _symmetry_equiv_pos_as_xyz
  1  'x, y, z'
loop_
 _atom_site_type_symbol
 _atom_site_label
 _atom_site_symmetry_multiplicity
 _atom_site_fract_x
 _atom_site_fract_y
 _atom_site_fract_z
 _atom_site_occupancy
  Mn  Mn0  1  0.50000000  0.33337900  0.50000000  1
  Mn  Mn1  1  0.50000000  0.16665300  0.00000000  1
  Mn  Mn2  1  0.50000000  0.00000000  0.50000000  1
  Mn  Mn3  1  0.00000000  0.33334700  0.00000000  1
  Mn  Mn4  1  0.00000000  0.16662100  0.50000000  1
  Mn  Mn5  1  0.00000000  0.83337900  0.50000000  1
  Mn  Mn6  1  0.00000000  0.66665300  0.00000000  1
  Mn  Mn7  1  0.00000000  0.50000000  0.50000000  1
  Mn  Mn8  1  0.50000000  0.83334700  0.00000000  1
  Mn  Mn9  1  0.50000000  0.66662100  0.50000000  1
  Ni  Ni10  1  0.00000000  0.00000000  0.00000000  1
  Ni  Ni11  1  0.50000000  0.50000000  0.00000000  1
  O  O12  1  0.33631550  0.33615450  0.09745200  1
  O  O13  1  0.66368450  0.33615450  0.90254800  1
  O  O14  1  0.33346700  0.16669600  0.40090000  1
  O  O15  1  0.66653300  0.16669600  0.59910000  1
  O  O16  1  0.32776900  0.00000000  0.09742200  1
  O  O17  1  0.16669700  0.00000000  0.59897600  1
  O  O18  1  0.67223100  0.00000000  0.90257800  1
  O  O19  1  0.83330300  0.00000000  0.40102400  1
  O  O20  1  0.83346700  0.33330400  0.40090000  1
  O  O21  1  0.16653300  0.33330400  0.59910000  1
  O  O22  1  0.16368450  0.16384550  0.90254800  1
  O  O23  1  0.83631550  0.16384550  0.09745200  1
  O  O24  1  0.83631550  0.83615450  0.09745200  1
  O  O25  1  0.16368450  0.83615450  0.90254800  1
  O  O26  1  0.83346700  0.66669600  0.40090000  1
  O  O27  1  0.16653300  0.66669600  0.59910000  1
  O  O28  1  0.82776900  0.50000000  0.09742200  1
  O  O29  1  0.66669700  0.50000000  0.59897600  1
  O  O30  1  0.17223100  0.50000000  0.90257800  1
  O  O31  1  0.33330300  0.50000000  0.40102400  1
  O  O32  1  0.33346700  0.83330400  0.40090000  1
  O  O33  1  0.66653300  0.83330400  0.59910000  1
  O  O34  1  0.66368450  0.66384550  0.90254800  1
  O  O35  1  0.33631550  0.66384550  0.09745200  1
