# generated using pymatgen
data_Mn2F7
_symmetry_space_group_name_H-M   'P 1'
_cell_length_a   7.36953900
_cell_length_b   5.20996000
_cell_length_c   13.06846501
_cell_angle_alpha   90.00000000
_cell_angle_beta   98.24295480
_cell_angle_gamma   90.00000000
_symmetry_Int_Tables_number   1
_chemical_formula_structural   Mn2F7
_chemical_formula_sum   'Mn8 F28'
_cell_volume   496.58004881
_cell_formula_units_Z   4
loop_
 _symmetry_equiv_pos_site_id
 _symmetry_equiv_pos_as_xyz
  1  'x, y, z'
loop_
 _atom_site_type_symbol
 _atom_site_label
 _atom_site_symmetry_multiplicity
 _atom_site_fract_x
 _atom_site_fract_y
 _atom_site_fract_z
 _atom_site_occupancy
  Mn  Mn0  1  0.97437800  0.73381400  0.89100900  1
  Mn  Mn1  1  0.92134900  0.23644200  0.67950100  1
  Mn  Mn2  1  0.57895000  0.72997300  0.32022900  1
  Mn  Mn3  1  0.52561400  0.24371100  0.10994200  1
  Mn  Mn4  1  0.47438600  0.74371100  0.89005800  1
  Mn  Mn5  1  0.42105000  0.22997300  0.67977100  1
  Mn  Mn6  1  0.07865100  0.73644200  0.32049900  1
  Mn  Mn7  1  0.02562200  0.23381400  0.10899100  1
  F  F8  1  0.99652300  0.55712200  0.19633800  1
  F  F9  1  0.94565200  0.95987800  0.60739400  1
  F  F10  1  0.82960900  0.84189600  0.32116400  1
  F  F11  1  0.77717700  0.13475400  0.11713800  1
  F  F12  1  0.84389300  0.43136100  0.57344700  1
  F  F13  1  0.94620800  0.42097000  0.98964400  1
  F  F14  1  0.89068000  0.53646400  0.77158300  1
  F  F15  1  0.59220200  0.55006900  0.18601200  1
  F  F16  1  0.64509800  0.43834300  0.38073100  1
  F  F17  1  0.72705000  0.84381300  0.90083300  1
  F  F18  1  0.67520400  0.13235600  0.69674900  1
  F  F19  1  0.56525300  0.90053100  0.43362900  1
  F  F20  1  0.50841600  0.02548900  0.23906000  1
  F  F21  1  0.45846200  0.96204000  0.02564600  1
  F  F22  1  0.54153800  0.46204000  0.97435400  1
  F  F23  1  0.49158400  0.52548900  0.76094000  1
  F  F24  1  0.43474700  0.40053100  0.56637100  1
  F  F25  1  0.32479600  0.63235600  0.30325100  1
  F  F26  1  0.27295000  0.34381300  0.09916700  1
  F  F27  1  0.35490200  0.93834300  0.61926900  1
  F  F28  1  0.40779800  0.05006900  0.81398800  1
  F  F29  1  0.10932000  0.03646400  0.22841700  1
  F  F30  1  0.05379200  0.92097000  0.01035600  1
  F  F31  1  0.15610700  0.93136100  0.42655300  1
  F  F32  1  0.22282300  0.63475400  0.88286200  1
  F  F33  1  0.17039100  0.34189600  0.67883600  1
  F  F34  1  0.05434800  0.45987800  0.39260600  1
  F  F35  1  0.00347700  0.05712200  0.80366200  1
