# generated using pymatgen
data_Li3Ni2SnO6
_symmetry_space_group_name_H-M   'P 1'
_cell_length_a   13.14391376
_cell_length_b   3.01989187
_cell_length_c   6.02255385
_cell_angle_alpha   90.00000000
_cell_angle_beta   102.89894375
_cell_angle_gamma   90.00000000
_symmetry_Int_Tables_number   1
_chemical_formula_structural   Li3Ni2SnO6
_chemical_formula_sum   'Li6 Ni4 Sn2 O12'
_cell_volume   233.02195968
_cell_formula_units_Z   2
loop_
 _symmetry_equiv_pos_site_id
 _symmetry_equiv_pos_as_xyz
  1  'x, y, z'
loop_
 _atom_site_type_symbol
 _atom_site_label
 _atom_site_symmetry_multiplicity
 _atom_site_fract_x
 _atom_site_fract_y
 _atom_site_fract_z
 _atom_site_occupancy
  Li  Li0  1  0.00000000  0.00000000  0.00000000  1
  Li  Li1  1  0.67621900  0.00000000  0.32313650  1
  Li  Li2  1  0.82378100  0.50000000  0.67686350  1
  Li  Li3  1  0.50000000  0.50000000  0.00000000  1
  Li  Li4  1  0.17621900  0.50000000  0.32313650  1
  Li  Li5  1  0.32378100  0.00000000  0.67686350  1
  Ni  Ni6  1  0.67029500  0.00000000  0.84450800  1
  Ni  Ni7  1  0.82970500  0.50000000  0.15549200  1
  Ni  Ni8  1  0.17029500  0.50000000  0.84450800  1
  Ni  Ni9  1  0.32970500  0.00000000  0.15549200  1
  Sn  Sn10  1  0.00000000  0.00000000  0.50000000  1
  Sn  Sn11  1  0.50000000  0.50000000  0.50000000  1
  O  O12  1  0.16213500  0.00000000  0.60201600  1
  O  O13  1  0.83786500  0.00000000  0.39798400  1
  O  O14  1  0.83147300  0.00000000  0.93191050  1
  O  O15  1  0.66852700  0.50000000  0.06808950  1
  O  O16  1  0.00154400  0.50000000  0.26021900  1
  O  O17  1  0.99845600  0.50000000  0.73978100  1
  O  O18  1  0.66213500  0.50000000  0.60201600  1
  O  O19  1  0.33786500  0.50000000  0.39798400  1
  O  O20  1  0.33147300  0.50000000  0.93191050  1
  O  O21  1  0.16852700  0.00000000  0.06808950  1
  O  O22  1  0.50154400  0.00000000  0.26021900  1
  O  O23  1  0.49845600  0.00000000  0.73978100  1
