# generated using pymatgen
data_Co3OF5
_symmetry_space_group_name_H-M   'P 1'
_cell_length_a   6.72647200
_cell_length_b   19.45174000
_cell_length_c   3.12439600
_cell_angle_alpha   90.00000000
_cell_angle_beta   90.00000000
_cell_angle_gamma   90.00000000
_symmetry_Int_Tables_number   1
_chemical_formula_structural   Co3OF5
_chemical_formula_sum   'Co12 O4 F20'
_cell_volume   408.80092312
_cell_formula_units_Z   4
loop_
 _symmetry_equiv_pos_site_id
 _symmetry_equiv_pos_as_xyz
  1  'x, y, z'
loop_
 _atom_site_type_symbol
 _atom_site_label
 _atom_site_symmetry_multiplicity
 _atom_site_fract_x
 _atom_site_fract_y
 _atom_site_fract_z
 _atom_site_occupancy
  Co  Co0  1  0.00000000  0.00000000  0.00000000  1
  Co  Co1  1  0.50000000  0.00000000  0.50000000  1
  Co  Co2  1  0.00000000  0.34743200  0.00000000  1
  Co  Co3  1  0.00000000  0.17150300  0.50000000  1
  Co  Co4  1  0.50000000  0.32849700  0.50000000  1
  Co  Co5  1  0.50000000  0.15256800  0.00000000  1
  Co  Co6  1  0.50000000  0.50000000  0.00000000  1
  Co  Co7  1  0.00000000  0.50000000  0.50000000  1
  Co  Co8  1  0.50000000  0.84743200  0.00000000  1
  Co  Co9  1  0.50000000  0.67150300  0.50000000  1
  Co  Co10  1  0.00000000  0.82849700  0.50000000  1
  Co  Co11  1  0.00000000  0.65256800  0.00000000  1
  O  O12  1  0.00000000  0.40674800  0.50000000  1
  O  O13  1  0.50000000  0.09325200  0.50000000  1
  O  O14  1  0.50000000  0.90674800  0.50000000  1
  O  O15  1  0.00000000  0.59325200  0.50000000  1
  F  F16  1  0.30610700  0.00000000  0.00000000  1
  F  F17  1  0.69389300  0.00000000  0.00000000  1
  F  F18  1  0.69776100  0.33180800  0.00000000  1
  F  F19  1  0.00000000  0.27621600  0.50000000  1
  F  F20  1  0.50000000  0.43292600  0.50000000  1
  F  F21  1  0.30223900  0.33180800  0.00000000  1
  F  F22  1  0.19776100  0.16819200  0.00000000  1
  F  F23  1  0.00000000  0.06707400  0.50000000  1
  F  F24  1  0.50000000  0.22378400  0.50000000  1
  F  F25  1  0.80223900  0.16819200  0.00000000  1
  F  F26  1  0.80610700  0.50000000  0.00000000  1
  F  F27  1  0.19389300  0.50000000  0.00000000  1
  F  F28  1  0.19776100  0.83180800  0.00000000  1
  F  F29  1  0.50000000  0.77621600  0.50000000  1
  F  F30  1  0.00000000  0.93292600  0.50000000  1
  F  F31  1  0.80223900  0.83180800  0.00000000  1
  F  F32  1  0.69776100  0.66819200  0.00000000  1
  F  F33  1  0.50000000  0.56707400  0.50000000  1
  F  F34  1  0.00000000  0.72378400  0.50000000  1
  F  F35  1  0.30223900  0.66819200  0.00000000  1
