# generated using pymatgen
data_Li2Co(CO3)2
_symmetry_space_group_name_H-M   'P 1'
_cell_length_a   5.63901464
_cell_length_b   10.72054504
_cell_length_c   16.49809168
_cell_angle_alpha   90.00000000
_cell_angle_beta   90.00000000
_cell_angle_gamma   90.00000000
_symmetry_Int_Tables_number   1
_chemical_formula_structural   Li2Co(CO3)2
_chemical_formula_sum   'Li16 Co8 C16 O48'
_cell_volume   997.36425795
_cell_formula_units_Z   8
loop_
 _symmetry_equiv_pos_site_id
 _symmetry_equiv_pos_as_xyz
  1  'x, y, z'
loop_
 _atom_site_type_symbol
 _atom_site_label
 _atom_site_symmetry_multiplicity
 _atom_site_fract_x
 _atom_site_fract_y
 _atom_site_fract_z
 _atom_site_occupancy
  Li  Li0  1  0.17862800  0.54416200  0.17098200  1
  Li  Li1  1  0.42862800  0.70583800  0.42098200  1
  Li  Li2  1  0.42862800  0.79416200  0.07901800  1
  Li  Li3  1  0.17862800  0.95583800  0.32901800  1
  Li  Li4  1  0.67862800  0.54416200  0.67098200  1
  Li  Li5  1  0.92862800  0.70583800  0.92098200  1
  Li  Li6  1  0.92862800  0.79416200  0.57901800  1
  Li  Li7  1  0.67862800  0.95583800  0.82901800  1
  Li  Li8  1  0.67862800  0.04416200  0.17098200  1
  Li  Li9  1  0.92862800  0.20583800  0.42098200  1
  Li  Li10  1  0.92862800  0.29416200  0.07901800  1
  Li  Li11  1  0.67862800  0.45583800  0.32901800  1
  Li  Li12  1  0.17862800  0.04416200  0.67098200  1
  Li  Li13  1  0.42862800  0.20583800  0.92098200  1
  Li  Li14  1  0.42862800  0.29416200  0.57901800  1
  Li  Li15  1  0.17862800  0.45583800  0.82901800  1
  Co  Co16  1  0.75375300  0.75000000  0.25000000  1
  Co  Co17  1  0.00375300  0.00000000  0.00000000  1
  Co  Co18  1  0.25375300  0.75000000  0.75000000  1
  Co  Co19  1  0.50375300  0.00000000  0.50000000  1
  Co  Co20  1  0.25375300  0.25000000  0.25000000  1
  Co  Co21  1  0.50375300  0.50000000  0.00000000  1
  Co  Co22  1  0.75375300  0.25000000  0.75000000  1
  Co  Co23  1  0.00375300  0.50000000  0.50000000  1
  C  C24  1  0.70727400  0.52473800  0.15215300  1
  C  C25  1  0.95727400  0.72526200  0.40215300  1
  C  C26  1  0.95727400  0.77473800  0.09784700  1
  C  C27  1  0.70727400  0.97526200  0.34784700  1
  C  C28  1  0.20727400  0.52473800  0.65215300  1
  C  C29  1  0.45727400  0.72526200  0.90215300  1
  C  C30  1  0.45727400  0.77473800  0.59784700  1
  C  C31  1  0.20727400  0.97526200  0.84784700  1
  C  C32  1  0.20727400  0.02473800  0.15215300  1
  C  C33  1  0.45727400  0.22526200  0.40215300  1
  C  C34  1  0.45727400  0.27473800  0.09784700  1
  C  C35  1  0.20727400  0.47526200  0.34784700  1
  C  C36  1  0.70727400  0.02473800  0.65215300  1
  C  C37  1  0.95727400  0.22526200  0.90215300  1
  C  C38  1  0.95727400  0.27473800  0.59784700  1
  C  C39  1  0.70727400  0.47526200  0.84784700  1
  O  O40  1  0.38384600  0.98055300  0.11315500  1
  O  O41  1  0.49813100  0.53362350  0.11808250  1
  O  O42  1  0.73007000  0.56398650  0.22722050  1
  O  O43  1  0.98007000  0.68601350  0.47722050  1
  O  O44  1  0.74813100  0.71637650  0.36808250  1
  O  O45  1  0.13384600  0.76944700  0.36315500  1
  O  O46  1  0.13384600  0.73055300  0.13684500  1
  O  O47  1  0.74813100  0.78362350  0.13191750  1
  O  O48  1  0.98007000  0.81398650  0.02277950  1
  O  O49  1  0.73007000  0.93601350  0.27277950  1
  O  O50  1  0.49813100  0.96637650  0.38191750  1
  O  O51  1  0.38384600  0.51944700  0.38684500  1
  O  O52  1  0.88384600  0.98055300  0.61315500  1
  O  O53  1  0.99813100  0.53362350  0.61808250  1
  O  O54  1  0.23007000  0.56398650  0.72722050  1
  O  O55  1  0.48007000  0.68601350  0.97722050  1
  O  O56  1  0.24813100  0.71637650  0.86808250  1
  O  O57  1  0.63384600  0.76944700  0.86315500  1
  O  O58  1  0.63384600  0.73055300  0.63684500  1
  O  O59  1  0.24813100  0.78362350  0.63191750  1
  O  O60  1  0.48007000  0.81398650  0.52277950  1
  O  O61  1  0.23007000  0.93601350  0.77277950  1
  O  O62  1  0.99813100  0.96637650  0.88191750  1
  O  O63  1  0.88384600  0.51944700  0.88684500  1
  O  O64  1  0.88384600  0.48055300  0.11315500  1
  O  O65  1  0.99813100  0.03362350  0.11808250  1
  O  O66  1  0.23007000  0.06398650  0.22722050  1
  O  O67  1  0.48007000  0.18601350  0.47722050  1
  O  O68  1  0.24813100  0.21637650  0.36808250  1
  O  O69  1  0.63384600  0.26944700  0.36315500  1
  O  O70  1  0.63384600  0.23055300  0.13684500  1
  O  O71  1  0.24813100  0.28362350  0.13191750  1
  O  O72  1  0.48007000  0.31398650  0.02277950  1
  O  O73  1  0.23007000  0.43601350  0.27277950  1
  O  O74  1  0.99813100  0.46637650  0.38191750  1
  O  O75  1  0.88384600  0.01944700  0.38684500  1
  O  O76  1  0.38384600  0.48055300  0.61315500  1
  O  O77  1  0.49813100  0.03362350  0.61808250  1
  O  O78  1  0.73007000  0.06398650  0.72722050  1
  O  O79  1  0.98007000  0.18601350  0.97722050  1
  O  O80  1  0.74813100  0.21637650  0.86808250  1
  O  O81  1  0.13384600  0.26944700  0.86315500  1
  O  O82  1  0.13384600  0.23055300  0.63684500  1
  O  O83  1  0.74813100  0.28362350  0.63191750  1
  O  O84  1  0.98007000  0.31398650  0.52277950  1
  O  O85  1  0.73007000  0.43601350  0.77277950  1
  O  O86  1  0.49813100  0.46637650  0.88191750  1
  O  O87  1  0.38384600  0.01944700  0.88684500  1
