# generated using pymatgen
data_MgCoO3
_symmetry_space_group_name_H-M   'P 1'
_cell_length_a   9.52918400
_cell_length_b   8.49405600
_cell_length_c   4.96192624
_cell_angle_alpha   90.00000000
_cell_angle_beta   94.26972076
_cell_angle_gamma   90.00000000
_symmetry_Int_Tables_number   1
_chemical_formula_structural   MgCoO3
_chemical_formula_sum   'Mg8 Co8 O24'
_cell_volume   400.51070460
_cell_formula_units_Z   8
loop_
 _symmetry_equiv_pos_site_id
 _symmetry_equiv_pos_as_xyz
  1  'x, y, z'
loop_
 _atom_site_type_symbol
 _atom_site_label
 _atom_site_symmetry_multiplicity
 _atom_site_fract_x
 _atom_site_fract_y
 _atom_site_fract_z
 _atom_site_occupancy
  Mg  Mg0  1  0.28361600  0.11002200  0.22403600  1
  Mg  Mg1  1  0.28361600  0.88997800  0.72403600  1
  Mg  Mg2  1  0.71638400  0.11002200  0.27596400  1
  Mg  Mg3  1  0.71638400  0.88997800  0.77596400  1
  Mg  Mg4  1  0.78361600  0.61002200  0.22403600  1
  Mg  Mg5  1  0.78361600  0.38997800  0.72403600  1
  Mg  Mg6  1  0.21638400  0.61002200  0.27596400  1
  Mg  Mg7  1  0.21638400  0.38997800  0.77596400  1
  Co  Co8  1  0.50000000  0.41771300  0.25000000  1
  Co  Co9  1  0.50000000  0.76645100  0.25000000  1
  Co  Co10  1  0.50000000  0.23354900  0.75000000  1
  Co  Co11  1  0.50000000  0.58228700  0.75000000  1
  Co  Co12  1  0.00000000  0.91771300  0.25000000  1
  Co  Co13  1  0.00000000  0.26645100  0.25000000  1
  Co  Co14  1  0.00000000  0.73354900  0.75000000  1
  Co  Co15  1  0.00000000  0.08228700  0.75000000  1
  O  O16  1  0.10341850  0.08357950  0.43013200  1
  O  O17  1  0.10341850  0.91642050  0.93013200  1
  O  O18  1  0.38912650  0.27386250  0.03952900  1
  O  O19  1  0.37182300  0.09962100  0.60771700  1
  O  O20  1  0.38912650  0.72613750  0.53952900  1
  O  O21  1  0.37182300  0.90037900  0.10771700  1
  O  O22  1  0.62817700  0.09962100  0.89228300  1
  O  O23  1  0.61087350  0.27386250  0.46047100  1
  O  O24  1  0.62817700  0.90037900  0.39228300  1
  O  O25  1  0.61087350  0.72613750  0.96047100  1
  O  O26  1  0.89658150  0.08357950  0.06986800  1
  O  O27  1  0.89658150  0.91642050  0.56986800  1
  O  O28  1  0.60341850  0.58357950  0.43013200  1
  O  O29  1  0.60341850  0.41642050  0.93013200  1
  O  O30  1  0.88912650  0.77386250  0.03952900  1
  O  O31  1  0.87182300  0.59962100  0.60771700  1
  O  O32  1  0.88912650  0.22613750  0.53952900  1
  O  O33  1  0.87182300  0.40037900  0.10771700  1
  O  O34  1  0.12817700  0.59962100  0.89228300  1
  O  O35  1  0.11087350  0.77386250  0.46047100  1
  O  O36  1  0.12817700  0.40037900  0.39228300  1
  O  O37  1  0.11087350  0.22613750  0.96047100  1
  O  O38  1  0.39658150  0.58357950  0.06986800  1
  O  O39  1  0.39658150  0.41642050  0.56986800  1
