# generated using pymatgen
data_Li3MnF6
_symmetry_space_group_name_H-M   'P 1'
_cell_length_a   4.94242000
_cell_length_b   8.70453400
_cell_length_c   4.98610111
_cell_angle_alpha   90.00000000
_cell_angle_beta   91.62373720
_cell_angle_gamma   90.00000000
_symmetry_Int_Tables_number   1
_chemical_formula_structural   Li3MnF6
_chemical_formula_sum   'Li6 Mn2 F12'
_cell_volume   214.42323038
_cell_formula_units_Z   2
loop_
 _symmetry_equiv_pos_site_id
 _symmetry_equiv_pos_as_xyz
  1  'x, y, z'
loop_
 _atom_site_type_symbol
 _atom_site_label
 _atom_site_symmetry_multiplicity
 _atom_site_fract_x
 _atom_site_fract_y
 _atom_site_fract_z
 _atom_site_occupancy
  Li  Li0  1  0.50000000  0.17874500  0.50000000  1
  Li  Li1  1  0.00000000  0.00000000  0.50000000  1
  Li  Li2  1  0.00000000  0.32125500  0.50000000  1
  Li  Li3  1  0.00000000  0.67874500  0.50000000  1
  Li  Li4  1  0.50000000  0.50000000  0.50000000  1
  Li  Li5  1  0.50000000  0.82125500  0.50000000  1
  Mn  Mn6  1  0.00000000  0.00000000  0.00000000  1
  Mn  Mn7  1  0.50000000  0.50000000  0.00000000  1
  F  F8  1  0.16439050  0.15188250  0.27401800  1
  F  F9  1  0.33560950  0.34811750  0.72598200  1
  F  F10  1  0.66439050  0.34811750  0.27401800  1
  F  F11  1  0.29257500  0.00000000  0.76948800  1
  F  F12  1  0.83560950  0.15188250  0.72598200  1
  F  F13  1  0.70742500  0.00000000  0.23051200  1
  F  F14  1  0.66439050  0.65188250  0.27401800  1
  F  F15  1  0.83560950  0.84811750  0.72598200  1
  F  F16  1  0.16439050  0.84811750  0.27401800  1
  F  F17  1  0.79257500  0.50000000  0.76948800  1
  F  F18  1  0.33560950  0.65188250  0.72598200  1
  F  F19  1  0.20742500  0.50000000  0.23051200  1
