# generated using pymatgen
data_Mn3CoO8
_symmetry_space_group_name_H-M   'P 1'
_cell_length_a   5.83045377
_cell_length_b   5.83045377
_cell_length_c   13.88296270
_cell_angle_alpha   90.00000000
_cell_angle_beta   90.00000000
_cell_angle_gamma   120.00000000
_symmetry_Int_Tables_number   1
_chemical_formula_structural   Mn3CoO8
_chemical_formula_sum   'Mn9 Co3 O24'
_cell_volume   408.71210531
_cell_formula_units_Z   3
loop_
 _symmetry_equiv_pos_site_id
 _symmetry_equiv_pos_as_xyz
  1  'x, y, z'
loop_
 _atom_site_type_symbol
 _atom_site_label
 _atom_site_symmetry_multiplicity
 _atom_site_fract_x
 _atom_site_fract_y
 _atom_site_fract_z
 _atom_site_occupancy
  Mn  Mn0  1  0.16666667  0.33333333  0.33333333  1
  Mn  Mn1  1  0.50000000  0.50000000  0.00000000  1
  Mn  Mn2  1  0.00000000  0.50000000  0.00000000  1
  Mn  Mn3  1  0.83333333  0.66666667  0.66666667  1
  Mn  Mn4  1  0.16666667  0.83333333  0.33333333  1
  Mn  Mn5  1  0.66666667  0.83333333  0.33333333  1
  Mn  Mn6  1  0.50000000  0.00000000  0.00000000  1
  Mn  Mn7  1  0.83333333  0.16666667  0.66666667  1
  Mn  Mn8  1  0.33333333  0.16666667  0.66666667  1
  Co  Co9  1  0.33333333  0.66666667  0.16666667  1
  Co  Co10  1  1.00000000  1.00000000  0.50000000  1
  Co  Co11  1  0.66666667  0.33333333  0.83333333  1
  O  O12  1  0.33333333  0.66666667  0.92990267  1
  O  O13  1  0.62519067  0.81259533  0.08002733  1
  O  O14  1  0.18740467  0.37480933  0.08002733  1
  O  O15  1  0.18740467  0.81259533  0.08002733  1
  O  O16  1  0.47926200  0.52073800  0.25330600  1
  O  O17  1  0.47926200  0.95852400  0.25330600  1
  O  O18  1  0.04147600  0.52073800  0.25330600  1
  O  O19  1  0.33333333  0.66666667  0.40343067  1
  O  O20  1  0.00000000  0.00000000  0.26323600  1
  O  O21  1  0.29185733  0.14592867  0.41336067  1
  O  O22  1  0.85407133  0.70814267  0.41336067  1
  O  O23  1  0.85407133  0.14592867  0.41336067  1
  O  O24  1  0.14592867  0.85407133  0.58663933  1
  O  O25  1  0.14592867  0.29185733  0.58663933  1
  O  O26  1  0.70814267  0.85407133  0.58663933  1
  O  O27  1  0.00000000  0.00000000  0.73676400  1
  O  O28  1  0.66666667  0.33333333  0.59656933  1
  O  O29  1  0.95852400  0.47926200  0.74669400  1
  O  O30  1  0.52073800  0.04147600  0.74669400  1
  O  O31  1  0.52073800  0.47926200  0.74669400  1
  O  O32  1  0.81259533  0.18740467  0.91997267  1
  O  O33  1  0.81259533  0.62519067  0.91997267  1
  O  O34  1  0.37480933  0.18740467  0.91997267  1
  O  O35  1  0.66666667  0.33333333  0.07009733  1
