# generated using pymatgen
data_Co2O3F
_symmetry_space_group_name_H-M   'P 1'
_cell_length_a   6.01943174
_cell_length_b   6.55993426
_cell_length_c   12.15272001
_cell_angle_alpha   90.00000000
_cell_angle_beta   90.00000000
_cell_angle_gamma   90.00000000
_symmetry_Int_Tables_number   1
_chemical_formula_structural   Co2O3F
_chemical_formula_sum   'Co16 O24 F8'
_cell_volume   479.87538450
_cell_formula_units_Z   8
loop_
 _symmetry_equiv_pos_site_id
 _symmetry_equiv_pos_as_xyz
  1  'x, y, z'
loop_
 _atom_site_type_symbol
 _atom_site_label
 _atom_site_symmetry_multiplicity
 _atom_site_fract_x
 _atom_site_fract_y
 _atom_site_fract_z
 _atom_site_occupancy
  Co  Co0  1  0.00000000  0.96411550  0.12416000  1
  Co  Co1  1  0.00000000  0.03588450  0.62416000  1
  Co  Co2  1  0.00000000  0.96411550  0.37584000  1
  Co  Co3  1  0.00000000  0.03588450  0.87584000  1
  Co  Co4  1  0.00000000  0.50000000  0.00000000  1
  Co  Co5  1  0.00000000  0.50000000  0.50000000  1
  Co  Co6  1  0.00000000  0.50299750  0.25000000  1
  Co  Co7  1  0.00000000  0.49700250  0.75000000  1
  Co  Co8  1  0.50000000  0.46411550  0.12416000  1
  Co  Co9  1  0.50000000  0.53588450  0.62416000  1
  Co  Co10  1  0.50000000  0.46411550  0.37584000  1
  Co  Co11  1  0.50000000  0.53588450  0.87584000  1
  Co  Co12  1  0.50000000  0.00000000  0.00000000  1
  Co  Co13  1  0.50000000  0.00000000  0.50000000  1
  Co  Co14  1  0.50000000  0.00299750  0.25000000  1
  Co  Co15  1  0.50000000  0.99700250  0.75000000  1
  O  O16  1  0.00000000  0.31877400  0.62330600  1
  O  O17  1  0.00000000  0.31877400  0.87669400  1
  O  O18  1  0.00000000  0.68122600  0.12330600  1
  O  O19  1  0.00000000  0.68122600  0.37669400  1
  O  O20  1  0.79437850  0.00000000  0.00000000  1
  O  O21  1  0.79437850  0.00000000  0.50000000  1
  O  O22  1  0.20562150  0.00000000  0.00000000  1
  O  O23  1  0.20562150  0.00000000  0.50000000  1
  O  O24  1  0.79319750  0.98454450  0.25000000  1
  O  O25  1  0.79319750  0.01545550  0.75000000  1
  O  O26  1  0.20680250  0.98454450  0.25000000  1
  O  O27  1  0.20680250  0.01545550  0.75000000  1
  O  O28  1  0.50000000  0.81877400  0.62330600  1
  O  O29  1  0.50000000  0.81877400  0.87669400  1
  O  O30  1  0.50000000  0.18122600  0.12330600  1
  O  O31  1  0.50000000  0.18122600  0.37669400  1
  O  O32  1  0.29437850  0.50000000  0.00000000  1
  O  O33  1  0.29437850  0.50000000  0.50000000  1
  O  O34  1  0.70562150  0.50000000  0.00000000  1
  O  O35  1  0.70562150  0.50000000  0.50000000  1
  O  O36  1  0.29319750  0.48454450  0.25000000  1
  O  O37  1  0.29319750  0.51545550  0.75000000  1
  O  O38  1  0.70680250  0.48454450  0.25000000  1
  O  O39  1  0.70680250  0.51545550  0.75000000  1
  F  F40  1  0.00000000  0.28365850  0.12677500  1
  F  F41  1  0.00000000  0.28365850  0.37322500  1
  F  F42  1  0.00000000  0.71634150  0.62677500  1
  F  F43  1  0.00000000  0.71634150  0.87322500  1
  F  F44  1  0.50000000  0.78365850  0.12677500  1
  F  F45  1  0.50000000  0.78365850  0.37322500  1
  F  F46  1  0.50000000  0.21634150  0.62677500  1
  F  F47  1  0.50000000  0.21634150  0.87322500  1
