# generated using pymatgen
data_Fe6O11F
_symmetry_space_group_name_H-M   'P 1'
_cell_length_a   8.79794800
_cell_length_b   6.61701200
_cell_length_c   7.11808928
_cell_angle_alpha   90.00000000
_cell_angle_beta   112.38755969
_cell_angle_gamma   90.00000000
_symmetry_Int_Tables_number   1
_chemical_formula_structural   Fe6O11F
_chemical_formula_sum   'Fe12 O22 F2'
_cell_volume   383.15468254
_cell_formula_units_Z   2
loop_
 _symmetry_equiv_pos_site_id
 _symmetry_equiv_pos_as_xyz
  1  'x, y, z'
loop_
 _atom_site_type_symbol
 _atom_site_label
 _atom_site_symmetry_multiplicity
 _atom_site_fract_x
 _atom_site_fract_y
 _atom_site_fract_z
 _atom_site_occupancy
  Fe  Fe0  1  0.00000000  0.66400700  0.00000000  1
  Fe  Fe1  1  0.33508450  0.66305450  0.83406200  1
  Fe  Fe2  1  0.00000000  0.68701000  0.50000000  1
  Fe  Fe3  1  0.32635450  0.65924050  0.32669700  1
  Fe  Fe4  1  0.67364550  0.65924050  0.67330300  1
  Fe  Fe5  1  0.66491550  0.66305450  0.16593800  1
  Fe  Fe6  1  0.50000000  0.16400700  0.00000000  1
  Fe  Fe7  1  0.83508450  0.16305450  0.83406200  1
  Fe  Fe8  1  0.50000000  0.18701000  0.50000000  1
  Fe  Fe9  1  0.82635450  0.15924050  0.32669700  1
  Fe  Fe10  1  0.17364550  0.15924050  0.67330300  1
  Fe  Fe11  1  0.16491550  0.16305450  0.16593800  1
  O  O12  1  0.33610650  0.35307050  0.83387400  1
  O  O13  1  0.76788150  0.66962750  0.46022800  1
  O  O14  1  0.93485850  0.16187250  0.12946000  1
  O  O15  1  0.10493750  0.66889350  0.79427500  1
  O  O16  1  0.89506250  0.66889350  0.20572500  1
  O  O17  1  0.23211850  0.66962750  0.53977200  1
  O  O18  1  0.06514150  0.16187250  0.87054000  1
  O  O19  1  0.00000000  0.98707000  0.50000000  1
  O  O20  1  0.84207000  0.47163400  0.83981400  1
  O  O21  1  0.15793000  0.47163400  0.16018600  1
  O  O22  1  0.66389350  0.35307050  0.16612600  1
  O  O23  1  0.83610650  0.85307050  0.83387400  1
  O  O24  1  0.26788150  0.16962750  0.46022800  1
  O  O25  1  0.43485850  0.66187250  0.12946000  1
  O  O26  1  0.60493750  0.16889350  0.79427500  1
  O  O27  1  0.39506250  0.16889350  0.20572500  1
  O  O28  1  0.73211850  0.16962750  0.53977200  1
  O  O29  1  0.56514150  0.66187250  0.87054000  1
  O  O30  1  0.50000000  0.48707000  0.50000000  1
  O  O31  1  0.34207000  0.97163400  0.83981400  1
  O  O32  1  0.65793000  0.97163400  0.16018600  1
  O  O33  1  0.16389350  0.85307050  0.16612600  1
  F  F34  1  0.00000000  0.36712300  0.50000000  1
  F  F35  1  0.50000000  0.86712300  0.50000000  1
