# generated using pymatgen
data_Nb8Tl8O25
_symmetry_space_group_name_H-M   'P 1'
_cell_length_a   13.24468800
_cell_length_b   7.65005000
_cell_length_c   13.23375956
_cell_angle_alpha   90.00000000
_cell_angle_beta   109.48211730
_cell_angle_gamma   90.00000000
_symmetry_Int_Tables_number   1
_chemical_formula_structural   Nb8Tl8O25
_chemical_formula_sum   'Nb16 Tl16 O50'
_cell_volume   1264.10681857
_cell_formula_units_Z   2
loop_
 _symmetry_equiv_pos_site_id
 _symmetry_equiv_pos_as_xyz
  1  'x, y, z'
loop_
 _atom_site_type_symbol
 _atom_site_label
 _atom_site_symmetry_multiplicity
 _atom_site_fract_x
 _atom_site_fract_y
 _atom_site_fract_z
 _atom_site_occupancy
  Nb  Nb0  1  0.74966350  0.25026050  0.99986400  1
  Nb  Nb1  1  0.74960150  0.24976850  0.49990400  1
  Nb  Nb2  1  0.74966350  0.74973950  0.99986400  1
  Nb  Nb3  1  0.49966000  0.00000000  0.49981700  1
  Nb  Nb4  1  0.99964000  0.00000000  0.99969500  1
  Nb  Nb5  1  0.24985600  0.00000000  0.25011000  1
  Nb  Nb6  1  0.74960150  0.75023150  0.49990400  1
  Nb  Nb7  1  0.74957700  0.00000000  0.74908800  1
  Nb  Nb8  1  0.24966350  0.75026050  0.99986400  1
  Nb  Nb9  1  0.24960150  0.74976850  0.49990400  1
  Nb  Nb10  1  0.24966350  0.24973950  0.99986400  1
  Nb  Nb11  1  0.99966000  0.50000000  0.49981700  1
  Nb  Nb12  1  0.49964000  0.50000000  0.99969500  1
  Nb  Nb13  1  0.74985600  0.50000000  0.25011000  1
  Nb  Nb14  1  0.24960150  0.25023150  0.49990400  1
  Nb  Nb15  1  0.24957700  0.50000000  0.74908800  1
  Tl  Tl16  1  0.50519450  0.23388950  0.24485100  1
  Tl  Tl17  1  0.50157700  0.25536100  0.74931200  1
  Tl  Tl18  1  0.24626000  0.00000000  0.74951800  1
  Tl  Tl19  1  0.50155300  0.00000000  0.00269200  1
  Tl  Tl20  1  0.76537500  0.00000000  0.25452000  1
  Tl  Tl21  1  0.00465900  0.00000000  0.51283500  1
  Tl  Tl22  1  0.50519450  0.76611050  0.24485100  1
  Tl  Tl23  1  0.50157700  0.74463900  0.74931200  1
  Tl  Tl24  1  0.00519450  0.73388950  0.24485100  1
  Tl  Tl25  1  0.00157700  0.75536100  0.74931200  1
  Tl  Tl26  1  0.74626000  0.50000000  0.74951800  1
  Tl  Tl27  1  0.00155300  0.50000000  0.00269200  1
  Tl  Tl28  1  0.26537500  0.50000000  0.25452000  1
  Tl  Tl29  1  0.50465900  0.50000000  0.51283500  1
  Tl  Tl30  1  0.00519450  0.26611050  0.24485100  1
  Tl  Tl31  1  0.00157700  0.24463900  0.74931200  1
  O  O32  1  0.28080450  0.81476150  0.15517300  1
  O  O33  1  0.09384500  0.00000000  0.15581800  1
  O  O34  1  0.40520400  0.31427900  0.02992500  1
  O  O35  1  0.21989500  0.81322900  0.34441500  1
  O  O36  1  0.22019700  0.00000000  0.53132100  1
  O  O37  1  0.71929600  0.00000000  0.03093400  1
  O  O38  1  0.59393450  0.31316150  0.96883100  1
  O  O39  1  0.28080450  0.18523850  0.15517300  1
  O  O40  1  0.59454450  0.18581750  0.46944900  1
  O  O41  1  0.43771400  0.00000000  0.81307700  1
  O  O42  1  0.78103300  0.81324000  0.65640200  1
  O  O43  1  0.59454450  0.81418250  0.46944900  1
  O  O44  1  0.40499600  0.00000000  0.34505100  1
  O  O45  1  0.59434000  0.00000000  0.65639000  1
  O  O46  1  0.71928450  0.81369750  0.84438000  1
  O  O47  1  0.40520400  0.68572100  0.02992500  1
  O  O48  1  0.21989500  0.18677100  0.34441500  1
  O  O49  1  0.40558600  0.81463000  0.53145200  1
  O  O50  1  0.40558600  0.18537000  0.53145200  1
  O  O51  1  0.28092300  0.00000000  0.96880500  1
  O  O52  1  0.78031600  0.00000000  0.47031400  1
  O  O53  1  0.78103300  0.18676000  0.65640200  1
  O  O54  1  0.59393450  0.68683850  0.96883100  1
  O  O55  1  0.90580700  0.00000000  0.84431900  1
  O  O56  1  0.71928450  0.18630250  0.84438000  1
  O  O57  1  0.78080450  0.31476150  0.15517300  1
  O  O58  1  0.59384500  0.50000000  0.15581800  1
  O  O59  1  0.90520400  0.81427900  0.02992500  1
  O  O60  1  0.71989500  0.31322900  0.34441500  1
  O  O61  1  0.72019700  0.50000000  0.53132100  1
  O  O62  1  0.21929600  0.50000000  0.03093400  1
  O  O63  1  0.09393450  0.81316150  0.96883100  1
  O  O64  1  0.78080450  0.68523850  0.15517300  1
  O  O65  1  0.09454450  0.68581750  0.46944900  1
  O  O66  1  0.93771400  0.50000000  0.81307700  1
  O  O67  1  0.28103300  0.31324000  0.65640200  1
  O  O68  1  0.09454450  0.31418250  0.46944900  1
  O  O69  1  0.90499600  0.50000000  0.34505100  1
  O  O70  1  0.09434000  0.50000000  0.65639000  1
  O  O71  1  0.21928450  0.31369750  0.84438000  1
  O  O72  1  0.90520400  0.18572100  0.02992500  1
  O  O73  1  0.71989500  0.68677100  0.34441500  1
  O  O74  1  0.90558600  0.31463000  0.53145200  1
  O  O75  1  0.90558600  0.68537000  0.53145200  1
  O  O76  1  0.78092300  0.50000000  0.96880500  1
  O  O77  1  0.28031600  0.50000000  0.47031400  1
  O  O78  1  0.28103300  0.68676000  0.65640200  1
  O  O79  1  0.09393450  0.18683850  0.96883100  1
  O  O80  1  0.40580700  0.50000000  0.84431900  1
  O  O81  1  0.21928450  0.68630250  0.84438000  1
