# generated using pymatgen
data_Li2MnCrO4
_symmetry_space_group_name_H-M   'P 1'
_cell_length_a   4.10038613
_cell_length_b   4.10038613
_cell_length_c   8.81154411
_cell_angle_alpha   90.00000000
_cell_angle_beta   90.00000000
_cell_angle_gamma   90.00000000
_symmetry_Int_Tables_number   1
_chemical_formula_structural   Li2MnCrO4
_chemical_formula_sum   'Li4 Mn2 Cr2 O8'
_cell_volume   148.14995773
_cell_formula_units_Z   2
loop_
 _symmetry_equiv_pos_site_id
 _symmetry_equiv_pos_as_xyz
  1  'x, y, z'
loop_
 _atom_site_type_symbol
 _atom_site_label
 _atom_site_symmetry_multiplicity
 _atom_site_fract_x
 _atom_site_fract_y
 _atom_site_fract_z
 _atom_site_occupancy
  Li  Li0  1  0.00000000  0.50000000  0.75000000  1
  Li  Li1  1  0.50000000  0.50000000  0.00000000  1
  Li  Li2  1  0.50000000  0.00000000  0.25000000  1
  Li  Li3  1  0.00000000  0.00000000  0.50000000  1
  Mn  Mn4  1  0.50000000  0.50000000  0.50000000  1
  Mn  Mn5  1  0.00000000  0.00000000  0.00000000  1
  Cr  Cr6  1  0.50000000  0.00000000  0.75000000  1
  Cr  Cr7  1  0.00000000  0.50000000  0.25000000  1
  O  O8  1  0.50000000  0.00000000  0.97952850  1
  O  O9  1  0.00000000  0.00000000  0.77040650  1
  O  O10  1  0.50000000  0.00000000  0.52047150  1
  O  O11  1  0.50000000  0.50000000  0.72959350  1
  O  O12  1  0.00000000  0.50000000  0.47952850  1
  O  O13  1  0.50000000  0.50000000  0.27040650  1
  O  O14  1  0.00000000  0.50000000  0.02047150  1
  O  O15  1  0.00000000  0.00000000  0.22959350  1
