# generated using pymatgen
data_Li4Ti2Mn3Sn3O16
_symmetry_space_group_name_H-M   'P 1'
_cell_length_a   10.69376200
_cell_length_b   6.16047200
_cell_length_c   9.73753181
_cell_angle_alpha   90.00000000
_cell_angle_beta   90.98427930
_cell_angle_gamma   90.00000000
_symmetry_Int_Tables_number   1
_chemical_formula_structural   Li4Ti2Mn3Sn3O16
_chemical_formula_sum   'Li8 Ti4 Mn6 Sn6 O32'
_cell_volume   641.40051618
_cell_formula_units_Z   2
loop_
 _symmetry_equiv_pos_site_id
 _symmetry_equiv_pos_as_xyz
  1  'x, y, z'
loop_
 _atom_site_type_symbol
 _atom_site_label
 _atom_site_symmetry_multiplicity
 _atom_site_fract_x
 _atom_site_fract_y
 _atom_site_fract_z
 _atom_site_occupancy
  Li  Li0  1  0.67600700  0.00000000  0.10313700  1
  Li  Li1  1  0.98703200  0.00000000  0.01151200  1
  Li  Li2  1  0.99227000  0.00000000  0.50014200  1
  Li  Li3  1  0.83248200  0.50000000  0.60187600  1
  Li  Li4  1  0.17600700  0.50000000  0.10313700  1
  Li  Li5  1  0.48703200  0.50000000  0.01151200  1
  Li  Li6  1  0.49227000  0.50000000  0.50014200  1
  Li  Li7  1  0.33248200  0.00000000  0.60187600  1
  Ti  Ti8  1  0.67213900  0.00000000  0.50081900  1
  Ti  Ti9  1  0.84989000  0.50000000  0.01780500  1
  Ti  Ti10  1  0.17213900  0.50000000  0.50081900  1
  Ti  Ti11  1  0.34989000  0.00000000  0.01780500  1
  Mn  Mn12  1  0.82576200  0.00000000  0.78058800  1
  Mn  Mn13  1  0.91787000  0.25601900  0.28802500  1
  Mn  Mn14  1  0.91787000  0.74398100  0.28802500  1
  Mn  Mn15  1  0.32576200  0.50000000  0.78058800  1
  Mn  Mn16  1  0.41787000  0.75601900  0.28802500  1
  Mn  Mn17  1  0.41787000  0.24398100  0.28802500  1
  Sn  Sn18  1  0.58164800  0.75229300  0.78858800  1
  Sn  Sn19  1  0.58164800  0.24770700  0.78858800  1
  Sn  Sn20  1  0.67270000  0.50000000  0.28428400  1
  Sn  Sn21  1  0.08164800  0.25229300  0.78858800  1
  Sn  Sn22  1  0.08164800  0.74770700  0.78858800  1
  Sn  Sn23  1  0.17270000  0.00000000  0.28428400  1
  O  O24  1  0.58818200  0.74887500  0.40899200  1
  O  O25  1  0.51419600  0.00000000  0.65756000  1
  O  O26  1  0.65889700  0.00000000  0.90464700  1
  O  O27  1  0.50171900  0.50000000  0.68316400  1
  O  O28  1  0.99626100  0.00000000  0.19828200  1
  O  O29  1  0.58818200  0.25112500  0.40899200  1
  O  O30  1  0.73978800  0.78816400  0.66050200  1
  O  O31  1  0.73978800  0.21183600  0.66050200  1
  O  O32  1  0.65748300  0.50000000  0.90807800  1
  O  O33  1  0.82073800  0.00000000  0.41632200  1
  O  O34  1  0.76250450  0.28348050  0.15170000  1
  O  O35  1  0.76250450  0.71651950  0.15170000  1
  O  O36  1  0.83916400  0.50000000  0.39534900  1
  O  O37  1  0.90852600  0.24206200  0.90015200  1
  O  O38  1  0.98356900  0.50000000  0.13386200  1
  O  O39  1  0.90852600  0.75793800  0.90015200  1
  O  O40  1  0.08818200  0.24887500  0.40899200  1
  O  O41  1  0.01419600  0.50000000  0.65756000  1
  O  O42  1  0.15889700  0.50000000  0.90464700  1
  O  O43  1  0.00171900  0.00000000  0.68316400  1
  O  O44  1  0.49626100  0.50000000  0.19828200  1
  O  O45  1  0.08818200  0.75112500  0.40899200  1
  O  O46  1  0.23978800  0.28816400  0.66050200  1
  O  O47  1  0.23978800  0.71183600  0.66050200  1
  O  O48  1  0.15748300  0.00000000  0.90807800  1
  O  O49  1  0.32073800  0.50000000  0.41632200  1
  O  O50  1  0.26250450  0.78348050  0.15170000  1
  O  O51  1  0.26250450  0.21651950  0.15170000  1
  O  O52  1  0.33916400  0.00000000  0.39534900  1
  O  O53  1  0.40852600  0.74206200  0.90015200  1
  O  O54  1  0.48356900  0.00000000  0.13386200  1
  O  O55  1  0.40852600  0.25793800  0.90015200  1
