# generated using pymatgen
data_Li4Ni3BiO8
_symmetry_space_group_name_H-M   'P 1'
_cell_length_a   6.06625417
_cell_length_b   6.06625417
_cell_length_c   14.79140829
_cell_angle_alpha   90.00000000
_cell_angle_beta   90.00000000
_cell_angle_gamma   120.00000000
_symmetry_Int_Tables_number   1
_chemical_formula_structural   Li4Ni3BiO8
_chemical_formula_sum   'Li12 Ni9 Bi3 O24'
_cell_volume   471.39108313
_cell_formula_units_Z   3
loop_
 _symmetry_equiv_pos_site_id
 _symmetry_equiv_pos_as_xyz
  1  'x, y, z'
loop_
 _atom_site_type_symbol
 _atom_site_label
 _atom_site_symmetry_multiplicity
 _atom_site_fract_x
 _atom_site_fract_y
 _atom_site_fract_z
 _atom_site_occupancy
  Li  Li0  1  0.83333333  0.16666667  0.16666667  1
  Li  Li1  1  0.16666667  0.33333333  0.83333333  1
  Li  Li2  1  0.33333333  0.16666667  0.16666667  1
  Li  Li3  1  0.33333333  0.66666667  0.16666667  1
  Li  Li4  1  0.50000000  0.50000000  0.50000000  1
  Li  Li5  1  0.83333333  0.66666667  0.16666667  1
  Li  Li6  1  0.00000000  0.50000000  0.50000000  1
  Li  Li7  1  1.00000000  1.00000000  0.50000000  1
  Li  Li8  1  0.16666667  0.83333333  0.83333333  1
  Li  Li9  1  0.50000000  0.00000000  0.50000000  1
  Li  Li10  1  0.66666667  0.83333333  0.83333333  1
  Li  Li11  1  0.66666667  0.33333333  0.83333333  1
  Ni  Ni12  1  0.00000000  0.50000000  0.00000000  1
  Ni  Ni13  1  0.16666667  0.33333333  0.33333333  1
  Ni  Ni14  1  0.50000000  0.50000000  0.00000000  1
  Ni  Ni15  1  0.66666667  0.83333333  0.33333333  1
  Ni  Ni16  1  0.83333333  0.66666667  0.66666667  1
  Ni  Ni17  1  0.16666667  0.83333333  0.33333333  1
  Ni  Ni18  1  0.33333333  0.16666667  0.66666667  1
  Ni  Ni19  1  0.50000000  0.00000000  0.00000000  1
  Ni  Ni20  1  0.83333333  0.16666667  0.66666667  1
  Bi  Bi21  1  0.00000000  0.00000000  0.00000000  1
  Bi  Bi22  1  0.66666667  0.33333333  0.33333333  1
  Bi  Bi23  1  0.33333333  0.66666667  0.66666667  1
  O  O24  1  0.16782567  0.83217433  0.08063933  1
  O  O25  1  0.16782567  0.33565133  0.08063933  1
  O  O26  1  0.66434867  0.83217433  0.08063933  1
  O  O27  1  0.33333333  0.66666667  0.40473667  1
  O  O28  1  0.33333333  0.66666667  0.92859667  1
  O  O29  1  0.00231800  0.50115900  0.25269400  1
  O  O30  1  0.49884100  0.99768200  0.25269400  1
  O  O31  1  0.49884100  0.50115900  0.25269400  1
  O  O32  1  0.83449233  0.16550767  0.41397267  1
  O  O33  1  0.83449233  0.66898467  0.41397267  1
  O  O34  1  0.33101533  0.16550767  0.41397267  1
  O  O35  1  0.00000000  0.00000000  0.73807000  1
  O  O36  1  0.00000000  0.00000000  0.26193000  1
  O  O37  1  0.66898467  0.83449233  0.58602733  1
  O  O38  1  0.16550767  0.33101533  0.58602733  1
  O  O39  1  0.16550767  0.83449233  0.58602733  1
  O  O40  1  0.50115900  0.49884100  0.74730600  1
  O  O41  1  0.50115900  0.00231800  0.74730600  1
  O  O42  1  0.99768200  0.49884100  0.74730600  1
  O  O43  1  0.66666667  0.33333333  0.07140333  1
  O  O44  1  0.66666667  0.33333333  0.59526333  1
  O  O45  1  0.33565133  0.16782567  0.91936067  1
  O  O46  1  0.83217433  0.66434867  0.91936067  1
  O  O47  1  0.83217433  0.16782567  0.91936067  1
