# generated using pymatgen
data_Li4Mn3Co3(WO8)2
_symmetry_space_group_name_H-M   'P 1'
_cell_length_a   10.43862600
_cell_length_b   5.90025400
_cell_length_c   9.86266800
_cell_angle_alpha   90.00000000
_cell_angle_beta   91.69353532
_cell_angle_gamma   90.00000000
_symmetry_Int_Tables_number   1
_chemical_formula_structural   Li4Mn3Co3(WO8)2
_chemical_formula_sum   'Li8 Mn6 Co6 W4 O32'
_cell_volume   607.18176334
_cell_formula_units_Z   2
loop_
 _symmetry_equiv_pos_site_id
 _symmetry_equiv_pos_as_xyz
  1  'x, y, z'
loop_
 _atom_site_type_symbol
 _atom_site_label
 _atom_site_symmetry_multiplicity
 _atom_site_fract_x
 _atom_site_fract_y
 _atom_site_fract_z
 _atom_site_occupancy
  Li  Li0  1  0.66215300  0.00000000  0.90720100  1
  Li  Li1  1  0.99789000  0.00000000  0.98999900  1
  Li  Li2  1  0.50156000  0.50000000  0.48440700  1
  Li  Li3  1  0.83233800  0.50000000  0.40716000  1
  Li  Li4  1  0.16215300  0.50000000  0.90720100  1
  Li  Li5  1  0.49789000  0.50000000  0.98999900  1
  Li  Li6  1  0.00156000  0.00000000  0.48440700  1
  Li  Li7  1  0.33233800  0.00000000  0.40716000  1
  Mn  Mn8  1  0.83216700  0.00000000  0.21065000  1
  Mn  Mn9  1  0.91321600  0.74501800  0.71438200  1
  Mn  Mn10  1  0.91321600  0.25498200  0.71438200  1
  Mn  Mn11  1  0.33216700  0.50000000  0.21065000  1
  Mn  Mn12  1  0.41321600  0.24501800  0.71438200  1
  Mn  Mn13  1  0.41321600  0.75498200  0.71438200  1
  Co  Co14  1  0.58208450  0.23123050  0.21660800  1
  Co  Co15  1  0.58208450  0.76876950  0.21660800  1
  Co  Co16  1  0.66916800  0.50000000  0.71320200  1
  Co  Co17  1  0.08208450  0.73123050  0.21660800  1
  Co  Co18  1  0.08208450  0.26876950  0.21660800  1
  Co  Co19  1  0.16916800  0.00000000  0.71320200  1
  W  W20  1  0.66656600  0.00000000  0.48583200  1
  W  W21  1  0.82038200  0.50000000  0.98731200  1
  W  W22  1  0.16656600  0.50000000  0.48583200  1
  W  W23  1  0.32038200  0.00000000  0.98731200  1
  O  O24  1  0.59280400  0.24104200  0.58272900  1
  O  O25  1  0.51730700  0.00000000  0.35521100  1
  O  O26  1  0.66868900  0.00000000  0.11301200  1
  O  O27  1  0.99877100  0.00000000  0.29547500  1
  O  O28  1  0.99671700  0.00000000  0.80104600  1
  O  O29  1  0.59280400  0.75895800  0.58272900  1
  O  O30  1  0.74107850  0.21910450  0.35224200  1
  O  O31  1  0.74107850  0.78089550  0.35224200  1
  O  O32  1  0.67115300  0.50000000  0.08878100  1
  O  O33  1  0.83363200  0.00000000  0.59202500  1
  O  O34  1  0.75628250  0.72345650  0.85736400  1
  O  O35  1  0.75628250  0.27654350  0.85736400  1
  O  O36  1  0.83799900  0.50000000  0.61423000  1
  O  O37  1  0.91369350  0.73829150  0.08638300  1
  O  O38  1  0.97655300  0.50000000  0.84285100  1
  O  O39  1  0.91369350  0.26170850  0.08638300  1
  O  O40  1  0.09280400  0.74104200  0.58272900  1
  O  O41  1  0.01730700  0.50000000  0.35521100  1
  O  O42  1  0.16868900  0.50000000  0.11301200  1
  O  O43  1  0.49877100  0.50000000  0.29547500  1
  O  O44  1  0.49671700  0.50000000  0.80104600  1
  O  O45  1  0.09280400  0.25895800  0.58272900  1
  O  O46  1  0.24107850  0.71910450  0.35224200  1
  O  O47  1  0.24107850  0.28089550  0.35224200  1
  O  O48  1  0.17115300  0.00000000  0.08878100  1
  O  O49  1  0.33363200  0.50000000  0.59202500  1
  O  O50  1  0.25628250  0.22345650  0.85736400  1
  O  O51  1  0.25628250  0.77654350  0.85736400  1
  O  O52  1  0.33799900  0.00000000  0.61423000  1
  O  O53  1  0.41369350  0.23829150  0.08638300  1
  O  O54  1  0.47655300  0.00000000  0.84285100  1
  O  O55  1  0.41369350  0.76170850  0.08638300  1
