# generated using pymatgen
data_Li2Fe3CoO8
_symmetry_space_group_name_H-M   'P 1'
_cell_length_a   10.41969964
_cell_length_b   5.88946903
_cell_length_c   5.10319604
_cell_angle_alpha   90.00000000
_cell_angle_beta   108.37878253
_cell_angle_gamma   90.00000000
_symmetry_Int_Tables_number   1
_chemical_formula_structural   Li2Fe3CoO8
_chemical_formula_sum   'Li4 Fe6 Co2 O16'
_cell_volume   297.19159875
_cell_formula_units_Z   2
loop_
 _symmetry_equiv_pos_site_id
 _symmetry_equiv_pos_as_xyz
  1  'x, y, z'
loop_
 _atom_site_type_symbol
 _atom_site_label
 _atom_site_symmetry_multiplicity
 _atom_site_fract_x
 _atom_site_fract_y
 _atom_site_fract_z
 _atom_site_occupancy
  Li  Li0  1  0.75000000  0.25000000  0.00000000  1
  Li  Li1  1  0.75000000  0.75000000  0.00000000  1
  Li  Li2  1  0.25000000  0.75000000  0.00000000  1
  Li  Li3  1  0.25000000  0.25000000  0.00000000  1
  Fe  Fe4  1  0.00000000  0.50000000  0.00000000  1
  Fe  Fe5  1  0.00000000  0.24592300  0.50000000  1
  Fe  Fe6  1  0.00000000  0.75407700  0.50000000  1
  Fe  Fe7  1  0.50000000  0.00000000  0.00000000  1
  Fe  Fe8  1  0.50000000  0.74592300  0.50000000  1
  Fe  Fe9  1  0.50000000  0.25407700  0.50000000  1
  Co  Co10  1  0.00000000  0.00000000  0.00000000  1
  Co  Co11  1  0.50000000  0.50000000  0.00000000  1
  O  O12  1  0.10287150  0.23803750  0.21849600  1
  O  O13  1  0.10287150  0.76196250  0.21849600  1
  O  O14  1  0.89404200  0.00000000  0.24405900  1
  O  O15  1  0.89261850  0.50000000  0.24896000  1
  O  O16  1  0.10738150  0.50000000  0.75104000  1
  O  O17  1  0.10595800  0.00000000  0.75594100  1
  O  O18  1  0.89712850  0.23803750  0.78150400  1
  O  O19  1  0.89712850  0.76196250  0.78150400  1
  O  O20  1  0.60287150  0.73803750  0.21849600  1
  O  O21  1  0.60287150  0.26196250  0.21849600  1
  O  O22  1  0.39404200  0.50000000  0.24405900  1
  O  O23  1  0.39261850  0.00000000  0.24896000  1
  O  O24  1  0.60738150  0.00000000  0.75104000  1
  O  O25  1  0.60595800  0.50000000  0.75594100  1
  O  O26  1  0.39712850  0.73803750  0.78150400  1
  O  O27  1  0.39712850  0.26196250  0.78150400  1
