# generated using pymatgen
data_Li2Ni(PO3)5
_symmetry_space_group_name_H-M   'P 1'
_cell_length_a   7.73396800
_cell_length_b   11.69431200
_cell_length_c   13.54942480
_cell_angle_alpha   90.00000000
_cell_angle_beta   102.79619826
_cell_angle_gamma   90.00000000
_symmetry_Int_Tables_number   1
_chemical_formula_structural   Li2Ni(PO3)5
_chemical_formula_sum   'Li8 Ni4 P20 O60'
_cell_volume   1195.02114486
_cell_formula_units_Z   4
loop_
 _symmetry_equiv_pos_site_id
 _symmetry_equiv_pos_as_xyz
  1  'x, y, z'
loop_
 _atom_site_type_symbol
 _atom_site_label
 _atom_site_symmetry_multiplicity
 _atom_site_fract_x
 _atom_site_fract_y
 _atom_site_fract_z
 _atom_site_occupancy
  Li  Li0  1  0.50302050  0.75373150  0.71145600  1
  Li  Li1  1  0.50302050  0.24626850  0.21145600  1
  Li  Li2  1  0.71137350  0.08781950  0.61582400  1
  Li  Li3  1  0.71137350  0.91218050  0.11582400  1
  Li  Li4  1  0.00302050  0.25373150  0.71145600  1
  Li  Li5  1  0.00302050  0.74626850  0.21145600  1
  Li  Li6  1  0.21137350  0.58781950  0.61582400  1
  Li  Li7  1  0.21137350  0.41218050  0.11582400  1
  Ni  Ni8  1  0.47175400  0.37200300  0.77437000  1
  Ni  Ni9  1  0.47175400  0.62799700  0.27437000  1
  Ni  Ni10  1  0.97175400  0.87200300  0.77437000  1
  Ni  Ni11  1  0.97175400  0.12799700  0.27437000  1
  P  P12  1  0.34499950  0.30770350  0.52990400  1
  P  P13  1  0.33671700  0.94757700  0.54988900  1
  P  P14  1  0.27731600  0.09643100  0.82849400  1
  P  P15  1  0.34499950  0.69229650  0.02990400  1
  P  P16  1  0.33671700  0.05242300  0.04988900  1
  P  P17  1  0.27731600  0.90356900  0.32849400  1
  P  P18  1  0.54198950  0.63467150  0.52219200  1
  P  P19  1  0.54198950  0.36532850  0.02219200  1
  P  P20  1  0.66380350  0.11021450  0.82291100  1
  P  P21  1  0.66380350  0.88978550  0.32291100  1
  P  P22  1  0.84499950  0.80770350  0.52990400  1
  P  P23  1  0.83671700  0.44757700  0.54988900  1
  P  P24  1  0.77731600  0.59643100  0.82849400  1
  P  P25  1  0.84499950  0.19229650  0.02990400  1
  P  P26  1  0.83671700  0.55242300  0.04988900  1
  P  P27  1  0.77731600  0.40356900  0.32849400  1
  P  P28  1  0.04198950  0.13467150  0.52219200  1
  P  P29  1  0.04198950  0.86532850  0.02219200  1
  P  P30  1  0.16380350  0.61021450  0.82291100  1
  P  P31  1  0.16380350  0.38978550  0.32291100  1
  O  O32  1  0.15792900  0.99758200  0.79429400  1
  O  O33  1  0.15792900  0.00241800  0.29429400  1
  O  O34  1  0.35698950  0.87090950  0.63972200  1
  O  O35  1  0.35698950  0.12909050  0.13972200  1
  O  O36  1  0.18101050  0.03312650  0.55284900  1
  O  O37  1  0.18101050  0.96687350  0.05284900  1
  O  O38  1  0.27818400  0.12364500  0.94736000  1
  O  O39  1  0.27818400  0.87635500  0.44736000  1
  O  O40  1  0.24285200  0.20973400  0.77457600  1
  O  O41  1  0.24285200  0.79026600  0.27457600  1
  O  O42  1  0.47595650  0.77527550  0.00261300  1
  O  O43  1  0.47595650  0.22472450  0.50261300  1
  O  O44  1  0.44835250  0.37361750  0.91419900  1
  O  O45  1  0.50402150  0.01409750  0.54900300  1
  O  O46  1  0.44835250  0.62638250  0.41419900  1
  O  O47  1  0.47754700  0.05420400  0.83312600  1
  O  O48  1  0.50402150  0.98590250  0.04900300  1
  O  O49  1  0.47754700  0.94579600  0.33312600  1
  O  O50  1  0.43379300  0.64019800  0.60057800  1
  O  O51  1  0.43379300  0.35980200  0.10057800  1
  O  O52  1  0.66681400  0.74553100  0.54168700  1
  O  O53  1  0.66681400  0.25446900  0.04168700  1
  O  O54  1  0.63999350  0.23292450  0.78800600  1
  O  O55  1  0.63999350  0.76707550  0.28800600  1
  O  O56  1  0.77649650  0.10286450  0.93913000  1
  O  O57  1  0.77649650  0.89713550  0.43913000  1
  O  O58  1  0.74890700  0.03149500  0.76010300  1
  O  O59  1  0.74890700  0.96850500  0.26010300  1
  O  O60  1  0.40279050  0.38052550  0.62351300  1
  O  O61  1  0.40279050  0.61947450  0.12351300  1
  O  O62  1  0.65792900  0.49758200  0.79429400  1
  O  O63  1  0.65792900  0.50241800  0.29429400  1
  O  O64  1  0.85698950  0.37090950  0.63972200  1
  O  O65  1  0.85698950  0.62909050  0.13972200  1
  O  O66  1  0.68101050  0.53312650  0.55284900  1
  O  O67  1  0.68101050  0.46687350  0.05284900  1
  O  O68  1  0.77818400  0.62364500  0.94736000  1
  O  O69  1  0.77818400  0.37635500  0.44736000  1
  O  O70  1  0.74285200  0.70973400  0.77457600  1
  O  O71  1  0.74285200  0.29026600  0.27457600  1
  O  O72  1  0.97595650  0.27527550  0.00261300  1
  O  O73  1  0.97595650  0.72472450  0.50261300  1
  O  O74  1  0.94835250  0.87361750  0.91419900  1
  O  O75  1  0.00402150  0.51409750  0.54900300  1
  O  O76  1  0.94835250  0.12638250  0.41419900  1
  O  O77  1  0.97754700  0.55420400  0.83312600  1
  O  O78  1  0.00402150  0.48590250  0.04900300  1
  O  O79  1  0.97754700  0.44579600  0.33312600  1
  O  O80  1  0.93379300  0.14019800  0.60057800  1
  O  O81  1  0.93379300  0.85980200  0.10057800  1
  O  O82  1  0.16681400  0.24553100  0.54168700  1
  O  O83  1  0.16681400  0.75446900  0.04168700  1
  O  O84  1  0.13999350  0.73292450  0.78800600  1
  O  O85  1  0.13999350  0.26707550  0.28800600  1
  O  O86  1  0.27649650  0.60286450  0.93913000  1
  O  O87  1  0.27649650  0.39713550  0.43913000  1
  O  O88  1  0.24890700  0.53149500  0.76010300  1
  O  O89  1  0.24890700  0.46850500  0.26010300  1
  O  O90  1  0.90279050  0.88052550  0.62351300  1
  O  O91  1  0.90279050  0.11947450  0.12351300  1
