# generated using pymatgen
data_Li2Mn3CoO8
_symmetry_space_group_name_H-M   'P 1'
_cell_length_a   5.93022209
_cell_length_b   5.93022209
_cell_length_c   14.04766298
_cell_angle_alpha   90.00000000
_cell_angle_beta   90.00000000
_cell_angle_gamma   120.00000000
_symmetry_Int_Tables_number   1
_chemical_formula_structural   Li2Mn3CoO8
_chemical_formula_sum   'Li6 Mn9 Co3 O24'
_cell_volume   427.83531202
_cell_formula_units_Z   3
loop_
 _symmetry_equiv_pos_site_id
 _symmetry_equiv_pos_as_xyz
  1  'x, y, z'
loop_
 _atom_site_type_symbol
 _atom_site_label
 _atom_site_symmetry_multiplicity
 _atom_site_fract_x
 _atom_site_fract_y
 _atom_site_fract_z
 _atom_site_occupancy
  Li  Li0  1  0.33333333  0.66666667  0.78953633  1
  Li  Li1  1  0.33333333  0.66666667  0.54379700  1
  Li  Li2  1  0.00000000  0.00000000  0.12286967  1
  Li  Li3  1  0.00000000  0.00000000  0.87713033  1
  Li  Li4  1  0.66666667  0.33333333  0.45620300  1
  Li  Li5  1  0.66666667  0.33333333  0.21046367  1
  Mn  Mn6  1  0.16666667  0.33333333  0.33333333  1
  Mn  Mn7  1  0.00000000  0.50000000  0.00000000  1
  Mn  Mn8  1  0.16666667  0.83333333  0.33333333  1
  Mn  Mn9  1  0.83333333  0.66666667  0.66666667  1
  Mn  Mn10  1  0.66666667  0.83333333  0.33333333  1
  Mn  Mn11  1  0.83333333  0.16666667  0.66666667  1
  Mn  Mn12  1  0.50000000  0.00000000  0.00000000  1
  Mn  Mn13  1  0.33333333  0.16666667  0.66666667  1
  Mn  Mn14  1  0.50000000  0.50000000  0.00000000  1
  Co  Co15  1  0.33333333  0.66666667  0.16666667  1
  Co  Co16  1  1.00000000  1.00000000  0.50000000  1
  Co  Co17  1  0.66666667  0.33333333  0.83333333  1
  O  O18  1  0.33333333  0.66666667  0.92636200  1
  O  O19  1  0.33333333  0.66666667  0.40697133  1
  O  O20  1  0.18592050  0.81407950  0.07889600  1
  O  O21  1  0.18592050  0.37184100  0.07889600  1
  O  O22  1  0.62815900  0.81407950  0.07889600  1
  O  O23  1  0.03850767  0.51925383  0.25443733  1
  O  O24  1  0.48074617  0.96149233  0.25443733  1
  O  O25  1  0.48074617  0.51925383  0.25443733  1
  O  O26  1  0.00000000  0.00000000  0.25969533  1
  O  O27  1  0.00000000  0.00000000  0.74030467  1
  O  O28  1  0.85258717  0.14741283  0.41222933  1
  O  O29  1  0.85258717  0.70517433  0.41222933  1
  O  O30  1  0.29482567  0.14741283  0.41222933  1
  O  O31  1  0.70517433  0.85258717  0.58777067  1
  O  O32  1  0.14741283  0.29482567  0.58777067  1
  O  O33  1  0.14741283  0.85258717  0.58777067  1
  O  O34  1  0.66666667  0.33333333  0.59302867  1
  O  O35  1  0.66666667  0.33333333  0.07363800  1
  O  O36  1  0.51925383  0.48074617  0.74556267  1
  O  O37  1  0.51925383  0.03850767  0.74556267  1
  O  O38  1  0.96149233  0.48074617  0.74556267  1
  O  O39  1  0.37184100  0.18592050  0.92110400  1
  O  O40  1  0.81407950  0.62815900  0.92110400  1
  O  O41  1  0.81407950  0.18592050  0.92110400  1
