# generated using pymatgen
data_Li2MnV3O8
_symmetry_space_group_name_H-M   'P 1'
_cell_length_a   5.95987972
_cell_length_b   5.95987972
_cell_length_c   14.89766187
_cell_angle_alpha   90.00000000
_cell_angle_beta   90.00000000
_cell_angle_gamma   120.00000000
_symmetry_Int_Tables_number   1
_chemical_formula_structural   Li2MnV3O8
_chemical_formula_sum   'Li6 Mn3 V9 O24'
_cell_volume   458.27243415
_cell_formula_units_Z   3
loop_
 _symmetry_equiv_pos_site_id
 _symmetry_equiv_pos_as_xyz
  1  'x, y, z'
loop_
 _atom_site_type_symbol
 _atom_site_label
 _atom_site_symmetry_multiplicity
 _atom_site_fract_x
 _atom_site_fract_y
 _atom_site_fract_z
 _atom_site_occupancy
  Li  Li0  1  0.00000000  0.00000000  0.11998900  1
  Li  Li1  1  0.33333333  0.66666667  0.16833967  1
  Li  Li2  1  0.66666667  0.33333333  0.45332233  1
  Li  Li3  1  0.00000000  0.00000000  0.50167300  1
  Li  Li4  1  0.33333333  0.66666667  0.78665567  1
  Li  Li5  1  0.66666667  0.33333333  0.83500633  1
  Mn  Mn6  1  0.66666667  0.33333333  0.21152233  1
  Mn  Mn7  1  0.33333333  0.66666667  0.54485567  1
  Mn  Mn8  1  0.00000000  0.00000000  0.87818900  1
  V  V9  1  0.49689900  0.99379800  0.00111500  1
  V  V10  1  0.49689900  0.50310100  0.00111500  1
  V  V11  1  0.00620200  0.50310100  0.00111500  1
  V  V12  1  0.16356567  0.32713133  0.33444833  1
  V  V13  1  0.16356567  0.83643433  0.33444833  1
  V  V14  1  0.67286867  0.83643433  0.33444833  1
  V  V15  1  0.83023233  0.66046467  0.66778167  1
  V  V16  1  0.83023233  0.16976767  0.66778167  1
  V  V17  1  0.33953533  0.16976767  0.66778167  1
  O  O18  1  0.00000000  0.00000000  0.25978400  1
  O  O19  1  0.64159200  0.82079600  0.06850000  1
  O  O20  1  0.17920400  0.82079600  0.06850000  1
  O  O21  1  0.17920400  0.35840800  0.06850000  1
  O  O22  1  0.48493333  0.96986667  0.26399967  1
  O  O23  1  0.48493333  0.51506667  0.26399967  1
  O  O24  1  0.03013333  0.51506667  0.26399967  1
  O  O25  1  0.66666667  0.33333333  0.07285633  1
  O  O26  1  0.66666667  0.33333333  0.59311733  1
  O  O27  1  0.30825867  0.15412933  0.40183333  1
  O  O28  1  0.84587067  0.15412933  0.40183333  1
  O  O29  1  0.84587067  0.69174133  0.40183333  1
  O  O30  1  0.15160000  0.30320000  0.59733300  1
  O  O31  1  0.15160000  0.84840000  0.59733300  1
  O  O32  1  0.69680000  0.84840000  0.59733300  1
  O  O33  1  0.33333333  0.66666667  0.40618967  1
  O  O34  1  0.33333333  0.66666667  0.92645067  1
  O  O35  1  0.97492533  0.48746267  0.73516667  1
  O  O36  1  0.51253733  0.48746267  0.73516667  1
  O  O37  1  0.51253733  0.02507467  0.73516667  1
  O  O38  1  0.81826667  0.63653333  0.93066633  1
  O  O39  1  0.81826667  0.18173333  0.93066633  1
  O  O40  1  0.36346667  0.18173333  0.93066633  1
  O  O41  1  0.00000000  0.00000000  0.73952300  1
