# generated using pymatgen
data_Li4CrNi3O8
_symmetry_space_group_name_H-M   'P 1'
_cell_length_a   5.82214086
_cell_length_b   5.82214086
_cell_length_c   14.35385041
_cell_angle_alpha   90.00000000
_cell_angle_beta   90.00000000
_cell_angle_gamma   120.00000000
_symmetry_Int_Tables_number   1
_chemical_formula_structural   Li4CrNi3O8
_chemical_formula_sum   'Li12 Cr3 Ni9 O24'
_cell_volume   421.37082619
_cell_formula_units_Z   3
loop_
 _symmetry_equiv_pos_site_id
 _symmetry_equiv_pos_as_xyz
  1  'x, y, z'
loop_
 _atom_site_type_symbol
 _atom_site_label
 _atom_site_symmetry_multiplicity
 _atom_site_fract_x
 _atom_site_fract_y
 _atom_site_fract_z
 _atom_site_occupancy
  Li  Li0  1  0.00000000  0.00000000  0.50000000  1
  Li  Li1  1  0.00000000  0.50000000  0.50000000  1
  Li  Li2  1  0.50000000  0.50000000  0.50000000  1
  Li  Li3  1  0.50000000  0.00000000  0.50000000  1
  Li  Li4  1  0.66666667  0.33333333  0.83333333  1
  Li  Li5  1  0.66666667  0.83333333  0.83333333  1
  Li  Li6  1  0.16666667  0.83333333  0.83333333  1
  Li  Li7  1  0.16666667  0.33333333  0.83333333  1
  Li  Li8  1  0.33333333  0.66666667  0.16666667  1
  Li  Li9  1  0.33333333  0.16666667  0.16666667  1
  Li  Li10  1  0.83333333  0.16666667  0.16666667  1
  Li  Li11  1  0.83333333  0.66666667  0.16666667  1
  Cr  Cr12  1  0.33333333  0.66666667  0.66666667  1
  Cr  Cr13  1  1.00000000  1.00000000  0.00000000  1
  Cr  Cr14  1  0.66666667  0.33333333  0.33333333  1
  Ni  Ni15  1  0.66666667  0.83333333  0.33333333  1
  Ni  Ni16  1  0.16666667  0.83333333  0.33333333  1
  Ni  Ni17  1  0.16666667  0.33333333  0.33333333  1
  Ni  Ni18  1  0.33333333  0.16666667  0.66666667  1
  Ni  Ni19  1  0.83333333  0.16666667  0.66666667  1
  Ni  Ni20  1  0.83333333  0.66666667  0.66666667  1
  Ni  Ni21  1  0.00000000  0.50000000  0.00000000  1
  Ni  Ni22  1  0.50000000  0.50000000  0.00000000  1
  Ni  Ni23  1  0.50000000  0.00000000  0.00000000  1
  O  O24  1  0.33333333  0.66666667  0.40117467  1
  O  O25  1  0.34752400  0.17376200  0.41044100  1
  O  O26  1  0.82623800  0.17376200  0.41044100  1
  O  O27  1  0.66666667  0.33333333  0.59882533  1
  O  O28  1  0.82623800  0.65247600  0.41044100  1
  O  O29  1  0.65247600  0.82623800  0.58955900  1
  O  O30  1  0.17376200  0.82623800  0.58955900  1
  O  O31  1  0.17376200  0.34752400  0.58955900  1
  O  O32  1  0.00000000  0.00000000  0.73450800  1
  O  O33  1  0.01419067  0.50709533  0.74377433  1
  O  O34  1  0.49290467  0.50709533  0.74377433  1
  O  O35  1  0.33333333  0.66666667  0.93215867  1
  O  O36  1  0.49290467  0.98580933  0.74377433  1
  O  O37  1  0.31914267  0.15957133  0.92289233  1
  O  O38  1  0.84042867  0.15957133  0.92289233  1
  O  O39  1  0.84042867  0.68085733  0.92289233  1
  O  O40  1  0.66666667  0.33333333  0.06784133  1
  O  O41  1  0.68085733  0.84042867  0.07710767  1
  O  O42  1  0.15957133  0.84042867  0.07710767  1
  O  O43  1  0.00000000  0.00000000  0.26549200  1
  O  O44  1  0.15957133  0.31914267  0.07710767  1
  O  O45  1  0.98580933  0.49290467  0.25622567  1
  O  O46  1  0.50709533  0.49290467  0.25622567  1
  O  O47  1  0.50709533  0.01419067  0.25622567  1
