# generated using pymatgen
data_Li3VCr3O8
_symmetry_space_group_name_H-M   'P 1'
_cell_length_a   10.32860600
_cell_length_b   5.86372600
_cell_length_c   5.94832170
_cell_angle_alpha   90.00000000
_cell_angle_beta   124.63779087
_cell_angle_gamma   90.00000000
_symmetry_Int_Tables_number   1
_chemical_formula_structural   Li3VCr3O8
_chemical_formula_sum   'Li6 V2 Cr6 O16'
_cell_volume   296.40387025
_cell_formula_units_Z   2
loop_
 _symmetry_equiv_pos_site_id
 _symmetry_equiv_pos_as_xyz
  1  'x, y, z'
loop_
 _atom_site_type_symbol
 _atom_site_label
 _atom_site_symmetry_multiplicity
 _atom_site_fract_x
 _atom_site_fract_y
 _atom_site_fract_z
 _atom_site_occupancy
  Li  Li0  1  0.00000000  0.50000000  0.50000000  1
  Li  Li1  1  0.25000000  0.25000000  0.50000000  1
  Li  Li2  1  0.25000000  0.75000000  0.50000000  1
  Li  Li3  1  0.50000000  0.00000000  0.50000000  1
  Li  Li4  1  0.75000000  0.75000000  0.50000000  1
  Li  Li5  1  0.75000000  0.25000000  0.50000000  1
  V  V6  1  0.00000000  0.00000000  0.00000000  1
  V  V7  1  0.50000000  0.50000000  0.00000000  1
  Cr  Cr8  1  0.00000000  0.50000000  0.00000000  1
  Cr  Cr9  1  0.25000000  0.75000000  0.00000000  1
  Cr  Cr10  1  0.25000000  0.25000000  0.00000000  1
  Cr  Cr11  1  0.50000000  0.00000000  0.00000000  1
  Cr  Cr12  1  0.75000000  0.25000000  0.00000000  1
  Cr  Cr13  1  0.75000000  0.75000000  0.00000000  1
  O  O14  1  0.26660300  0.00000000  0.78592800  1
  O  O15  1  0.01003100  0.24449800  0.78387600  1
  O  O16  1  0.01003100  0.75550200  0.78387600  1
  O  O17  1  0.23814600  0.00000000  0.22491900  1
  O  O18  1  0.26185400  0.50000000  0.77508100  1
  O  O19  1  0.48996900  0.74449800  0.21612400  1
  O  O20  1  0.48996900  0.25550200  0.21612400  1
  O  O21  1  0.23339700  0.50000000  0.21407200  1
  O  O22  1  0.76660300  0.50000000  0.78592800  1
  O  O23  1  0.51003100  0.74449800  0.78387600  1
  O  O24  1  0.51003100  0.25550200  0.78387600  1
  O  O25  1  0.73814600  0.50000000  0.22491900  1
  O  O26  1  0.76185400  0.00000000  0.77508100  1
  O  O27  1  0.98996900  0.24449800  0.21612400  1
  O  O28  1  0.98996900  0.75550200  0.21612400  1
  O  O29  1  0.73339700  0.00000000  0.21407200  1
