# generated using pymatgen
data_Ti4(Ni5O8)3
_symmetry_space_group_name_H-M   'P 1'
_cell_length_a   5.95184254
_cell_length_b   5.95184254
_cell_length_c   14.50415800
_cell_angle_alpha   90.00000000
_cell_angle_beta   90.00000000
_cell_angle_gamma   120.00000000
_symmetry_Int_Tables_number   1
_chemical_formula_structural   Ti4(Ni5O8)3
_chemical_formula_sum   'Ti4 Ni15 O24'
_cell_volume   444.96517320
_cell_formula_units_Z   1
loop_
 _symmetry_equiv_pos_site_id
 _symmetry_equiv_pos_as_xyz
  1  'x, y, z'
loop_
 _atom_site_type_symbol
 _atom_site_label
 _atom_site_symmetry_multiplicity
 _atom_site_fract_x
 _atom_site_fract_y
 _atom_site_fract_z
 _atom_site_occupancy
  Ti  Ti0  1  0.33333333  0.66666667  0.28931600  1
  Ti  Ti1  1  0.00000000  0.00000000  0.62395700  1
  Ti  Ti2  1  0.00000000  0.00000000  0.37604300  1
  Ti  Ti3  1  0.66666667  0.33333333  0.71068400  1
  Ni  Ni4  1  0.83523283  0.67046567  0.16741400  1
  Ni  Ni5  1  0.50000000  0.50000000  0.00000000  1
  Ni  Ni6  1  0.67046567  0.83523283  0.83258600  1
  Ni  Ni7  1  0.66666667  0.33333333  0.33308500  1
  Ni  Ni8  1  0.32953433  0.16476717  0.16741400  1
  Ni  Ni9  1  0.00000000  0.50000000  0.00000000  1
  Ni  Ni10  1  0.00000000  0.00000000  0.00000000  1
  Ni  Ni11  1  0.16476717  0.32953433  0.83258600  1
  Ni  Ni12  1  0.50000000  0.00000000  0.00000000  1
  Ni  Ni13  1  0.83523283  0.16476717  0.16741400  1
  Ni  Ni14  1  0.50000000  0.50000000  0.50000000  1
  Ni  Ni15  1  0.16476717  0.83523283  0.83258600  1
  Ni  Ni16  1  0.33333333  0.66666667  0.66691500  1
  Ni  Ni17  1  0.00000000  0.50000000  0.50000000  1
  Ni  Ni18  1  0.50000000  0.00000000  0.50000000  1
  O  O19  1  0.50293133  0.49706867  0.24825000  1
  O  O20  1  0.99413733  0.49706867  0.24825000  1
  O  O21  1  0.70006533  0.85003267  0.07498000  1
  O  O22  1  0.00000000  0.00000000  0.24916400  1
  O  O23  1  0.49706867  0.50293133  0.75175000  1
  O  O24  1  0.14996733  0.85003267  0.07498000  1
  O  O25  1  0.14996733  0.29993467  0.07498000  1
  O  O26  1  0.85003267  0.70006533  0.92502000  1
  O  O27  1  0.50293133  0.00586267  0.24825000  1
  O  O28  1  0.66666667  0.33333333  0.08393400  1
  O  O29  1  0.29993467  0.14996733  0.92502000  1
  O  O30  1  0.00000000  0.00000000  0.75083600  1
  O  O31  1  0.00586267  0.50293133  0.75175000  1
  O  O32  1  0.33333333  0.66666667  0.91606600  1
  O  O33  1  0.83039383  0.66078767  0.41756700  1
  O  O34  1  0.49706867  0.99413733  0.75175000  1
  O  O35  1  0.16960617  0.83039383  0.58243300  1
  O  O36  1  0.16960617  0.33921233  0.58243300  1
  O  O37  1  0.85003267  0.14996733  0.92502000  1
  O  O38  1  0.33333333  0.66666667  0.41704600  1
  O  O39  1  0.66078767  0.83039383  0.58243300  1
  O  O40  1  0.66666667  0.33333333  0.58295400  1
  O  O41  1  0.33921233  0.16960617  0.41756700  1
  O  O42  1  0.83039383  0.16960617  0.41756700  1
