# generated using pymatgen
data_Mn3O2F5
_symmetry_space_group_name_H-M   'P 1'
_cell_length_a   6.42829600
_cell_length_b   7.14031400
_cell_length_c   13.89236200
_cell_angle_alpha   90.00000000
_cell_angle_beta   90.00000000
_cell_angle_gamma   90.00000000
_symmetry_Int_Tables_number   1
_chemical_formula_structural   Mn3O2F5
_chemical_formula_sum   'Mn12 O8 F20'
_cell_volume   637.66013716
_cell_formula_units_Z   4
loop_
 _symmetry_equiv_pos_site_id
 _symmetry_equiv_pos_as_xyz
  1  'x, y, z'
loop_
 _atom_site_type_symbol
 _atom_site_label
 _atom_site_symmetry_multiplicity
 _atom_site_fract_x
 _atom_site_fract_y
 _atom_site_fract_z
 _atom_site_occupancy
  Mn  Mn0  1  0.50000000  0.50000000  0.60882650  1
  Mn  Mn1  1  0.75000000  0.25000000  0.75000000  1
  Mn  Mn2  1  0.25000000  0.25000000  0.75000000  1
  Mn  Mn3  1  0.75000000  0.75000000  0.75000000  1
  Mn  Mn4  1  0.25000000  0.75000000  0.75000000  1
  Mn  Mn5  1  0.00000000  0.00000000  0.89117350  1
  Mn  Mn6  1  0.00000000  0.00000000  0.10882650  1
  Mn  Mn7  1  0.25000000  0.75000000  0.25000000  1
  Mn  Mn8  1  0.75000000  0.75000000  0.25000000  1
  Mn  Mn9  1  0.25000000  0.25000000  0.25000000  1
  Mn  Mn10  1  0.75000000  0.25000000  0.25000000  1
  Mn  Mn11  1  0.50000000  0.50000000  0.39117350  1
  O  O12  1  0.22129850  0.00000000  0.79865300  1
  O  O13  1  0.77870150  0.00000000  0.79865300  1
  O  O14  1  0.27870150  0.50000000  0.70134700  1
  O  O15  1  0.72129850  0.50000000  0.70134700  1
  O  O16  1  0.72129850  0.50000000  0.29865300  1
  O  O17  1  0.27870150  0.50000000  0.29865300  1
  O  O18  1  0.77870150  0.00000000  0.20134700  1
  O  O19  1  0.22129850  0.00000000  0.20134700  1
  F  F20  1  0.19171800  0.00000000  0.00000000  1
  F  F21  1  0.80828200  0.00000000  0.00000000  1
  F  F22  1  0.50000000  0.79774850  0.64640000  1
  F  F23  1  0.00000000  0.29774850  0.85360000  1
  F  F24  1  0.50000000  0.27998200  0.83067950  1
  F  F25  1  0.00000000  0.77998200  0.66932050  1
  F  F26  1  0.00000000  0.22001800  0.66932050  1
  F  F27  1  0.50000000  0.72001800  0.83067950  1
  F  F28  1  0.00000000  0.70225150  0.85360000  1
  F  F29  1  0.50000000  0.20225150  0.64640000  1
  F  F30  1  0.69171800  0.50000000  0.50000000  1
  F  F31  1  0.30828200  0.50000000  0.50000000  1
  F  F32  1  0.00000000  0.29774850  0.14640000  1
  F  F33  1  0.50000000  0.79774850  0.35360000  1
  F  F34  1  0.00000000  0.77998200  0.33067950  1
  F  F35  1  0.50000000  0.27998200  0.16932050  1
  F  F36  1  0.50000000  0.72001800  0.16932050  1
  F  F37  1  0.00000000  0.22001800  0.33067950  1
  F  F38  1  0.50000000  0.20225150  0.35360000  1
  F  F39  1  0.00000000  0.70225150  0.14640000  1
