# generated using pymatgen
data_LiCuPO4
_symmetry_space_group_name_H-M   'P 1'
_cell_length_a   6.80067800
_cell_length_b   6.99666000
_cell_length_c   16.38515714
_cell_angle_alpha   90.00000000
_cell_angle_beta   90.28248044
_cell_angle_gamma   90.00000000
_symmetry_Int_Tables_number   1
_chemical_formula_structural   LiCuPO4
_chemical_formula_sum   'Li8 Cu8 P8 O32'
_cell_volume   779.62959154
_cell_formula_units_Z   8
loop_
 _symmetry_equiv_pos_site_id
 _symmetry_equiv_pos_as_xyz
  1  'x, y, z'
loop_
 _atom_site_type_symbol
 _atom_site_label
 _atom_site_symmetry_multiplicity
 _atom_site_fract_x
 _atom_site_fract_y
 _atom_site_fract_z
 _atom_site_occupancy
  Li  Li0  1  0.61307400  0.22433300  0.56261700  1
  Li  Li1  1  0.38692600  0.22433300  0.93738300  1
  Li  Li2  1  0.61307400  0.77566700  0.06261700  1
  Li  Li3  1  0.38692600  0.77566700  0.43738300  1
  Li  Li4  1  0.11307400  0.72433300  0.56261700  1
  Li  Li5  1  0.88692600  0.72433300  0.93738300  1
  Li  Li6  1  0.11307400  0.27566700  0.06261700  1
  Li  Li7  1  0.88692600  0.27566700  0.43738300  1
  Cu  Cu8  1  0.74963900  0.08466200  0.74970400  1
  Cu  Cu9  1  0.74963900  0.91533800  0.24970400  1
  Cu  Cu10  1  0.25036100  0.08466200  0.75029600  1
  Cu  Cu11  1  0.25036100  0.91533800  0.25029600  1
  Cu  Cu12  1  0.24963900  0.58466200  0.74970400  1
  Cu  Cu13  1  0.24963900  0.41533800  0.24970400  1
  Cu  Cu14  1  0.75036100  0.58466200  0.75029600  1
  Cu  Cu15  1  0.75036100  0.41533800  0.25029600  1
  P  P16  1  0.52165750  0.83277150  0.86428400  1
  P  P17  1  0.47834250  0.83277150  0.63571600  1
  P  P18  1  0.52165750  0.16722850  0.36428400  1
  P  P19  1  0.47834250  0.16722850  0.13571600  1
  P  P20  1  0.02165750  0.33277150  0.86428400  1
  P  P21  1  0.97834250  0.33277150  0.63571600  1
  P  P22  1  0.02165750  0.66722850  0.36428400  1
  P  P23  1  0.97834250  0.66722850  0.13571600  1
  O  O24  1  0.70002800  0.83437700  0.80016300  1
  O  O25  1  0.70002800  0.16562300  0.30016300  1
  O  O26  1  0.60260500  0.65192800  0.65285400  1
  O  O27  1  0.59249550  0.02433750  0.64970200  1
  O  O28  1  0.61075550  0.82562350  0.94896500  1
  O  O29  1  0.60260500  0.34807200  0.15285400  1
  O  O30  1  0.59249550  0.97566250  0.14970200  1
  O  O31  1  0.61075550  0.17437650  0.44896500  1
  O  O32  1  0.38924450  0.82562350  0.55103500  1
  O  O33  1  0.40750450  0.02433750  0.85029800  1
  O  O34  1  0.39739500  0.65192800  0.84714600  1
  O  O35  1  0.38924450  0.17437650  0.05103500  1
  O  O36  1  0.40750450  0.97566250  0.35029800  1
  O  O37  1  0.39739500  0.34807200  0.34714600  1
  O  O38  1  0.29997200  0.83437700  0.69983700  1
  O  O39  1  0.29997200  0.16562300  0.19983700  1
  O  O40  1  0.20002800  0.33437700  0.80016300  1
  O  O41  1  0.20002800  0.66562300  0.30016300  1
  O  O42  1  0.10260500  0.15192800  0.65285400  1
  O  O43  1  0.09249550  0.52433750  0.64970200  1
  O  O44  1  0.11075550  0.32562350  0.94896500  1
  O  O45  1  0.10260500  0.84807200  0.15285400  1
  O  O46  1  0.09249550  0.47566250  0.14970200  1
  O  O47  1  0.11075550  0.67437650  0.44896500  1
  O  O48  1  0.88924450  0.32562350  0.55103500  1
  O  O49  1  0.90750450  0.52433750  0.85029800  1
  O  O50  1  0.89739500  0.15192800  0.84714600  1
  O  O51  1  0.88924450  0.67437650  0.05103500  1
  O  O52  1  0.90750450  0.47566250  0.35029800  1
  O  O53  1  0.89739500  0.84807200  0.34714600  1
  O  O54  1  0.79997200  0.33437700  0.69983700  1
  O  O55  1  0.79997200  0.66562300  0.19983700  1
