# generated using pymatgen
data_LiFeSi3O8
_symmetry_space_group_name_H-M   'P 1'
_cell_length_a   7.11054306
_cell_length_b   7.69853831
_cell_length_c   7.69993453
_cell_angle_alpha   117.67526721
_cell_angle_beta   96.75577812
_cell_angle_gamma   109.30919516
_symmetry_Int_Tables_number   1
_chemical_formula_structural   LiFeSi3O8
_chemical_formula_sum   'Li2 Fe2 Si6 O16'
_cell_volume   333.21600969
_cell_formula_units_Z   2
loop_
 _symmetry_equiv_pos_site_id
 _symmetry_equiv_pos_as_xyz
  1  'x, y, z'
loop_
 _atom_site_type_symbol
 _atom_site_label
 _atom_site_symmetry_multiplicity
 _atom_site_fract_x
 _atom_site_fract_y
 _atom_site_fract_z
 _atom_site_occupancy
  Li  Li0  1  0.85361549  0.00447442  0.72652936  1
  Li  Li1  1  0.14638451  0.99552558  0.27347064  1
  Fe  Fe2  1  0.36701840  0.75671934  0.79046043  1
  Fe  Fe3  1  0.63298160  0.24328066  0.20953957  1
  Si  Si4  1  0.29331376  0.20690567  0.56651983  1
  Si  Si5  1  0.19586208  0.29577910  0.84928194  1
  Si  Si6  1  0.24122201  0.63729231  0.20661482  1
  Si  Si7  1  0.75877799  0.36270769  0.79338518  1
  Si  Si8  1  0.80413792  0.70422090  0.15071806  1
  Si  Si9  1  0.70668624  0.79309433  0.43348017  1
  O  O10  1  0.18020107  0.16373485  0.73006579  1
  O  O11  1  0.25508297  0.69280724  0.98884682  1
  O  O12  1  0.54536180  0.27226810  0.65523981  1
  O  O13  1  0.66942320  0.81033542  0.90356939  1
  O  O14  1  0.05490919  0.75037835  0.16746966  1
  O  O15  1  0.25848609  0.99788100  0.54508221  1
  O  O16  1  0.19099167  0.38884122  0.34054892  1
  O  O17  1  0.28209547  0.53352044  0.72803401  1
  O  O18  1  0.71790453  0.46647956  0.27196599  1
  O  O19  1  0.80900833  0.61115878  0.65945108  1
  O  O20  1  0.74151391  0.00211900  0.45491779  1
  O  O21  1  0.94509081  0.24962165  0.83253034  1
  O  O22  1  0.33057680  0.18966458  0.09643061  1
  O  O23  1  0.45463820  0.72773190  0.34476019  1
  O  O24  1  0.74491703  0.30719276  0.01115318  1
  O  O25  1  0.81979893  0.83626515  0.26993421  1
