# generated using pymatgen
data_Ti2(PO4)3
_symmetry_space_group_name_H-M   'P 1'
_cell_length_a   8.71264211
_cell_length_b   8.71264211
_cell_length_c   21.21064690
_cell_angle_alpha   90.00000000
_cell_angle_beta   90.00000000
_cell_angle_gamma   120.00000000
_symmetry_Int_Tables_number   1
_chemical_formula_structural   Ti2(PO4)3
_chemical_formula_sum   'Ti12 P18 O72'
_cell_volume   1394.39011487
_cell_formula_units_Z   6
loop_
 _symmetry_equiv_pos_site_id
 _symmetry_equiv_pos_as_xyz
  1  'x, y, z'
loop_
 _atom_site_type_symbol
 _atom_site_label
 _atom_site_symmetry_multiplicity
 _atom_site_fract_x
 _atom_site_fract_y
 _atom_site_fract_z
 _atom_site_occupancy
  Ti  Ti0  1  0.33333333  0.66666667  0.03037367  1
  Ti  Ti1  1  0.33333333  0.66666667  0.30295967  1
  Ti  Ti2  1  0.33333333  0.66666667  0.53037367  1
  Ti  Ti3  1  0.33333333  0.66666667  0.80295967  1
  Ti  Ti4  1  0.00000000  0.00000000  0.36370700  1
  Ti  Ti5  1  0.00000000  0.00000000  0.63629300  1
  Ti  Ti6  1  0.00000000  0.00000000  0.86370700  1
  Ti  Ti7  1  1.00000000  0.00000000  0.13629300  1
  Ti  Ti8  1  0.66666667  0.33333333  0.69704033  1
  Ti  Ti9  1  0.66666667  0.33333333  0.96962633  1
  Ti  Ti10  1  0.66666667  0.33333333  0.19704033  1
  Ti  Ti11  1  0.66666667  0.33333333  0.46962633  1
  P  P12  1  0.66666667  0.61656333  0.08333333  1
  P  P13  1  0.71677000  0.00000000  0.25000000  1
  P  P14  1  0.28323000  0.28323000  0.25000000  1
  P  P15  1  0.38343667  0.05010333  0.08333333  1
  P  P16  1  0.94989667  0.33333333  0.08333333  1
  P  P17  1  0.00000000  0.71677000  0.25000000  1
  P  P18  1  0.33333333  0.94989667  0.41666667  1
  P  P19  1  0.38343667  0.33333333  0.58333333  1
  P  P20  1  0.94989667  0.61656333  0.58333333  1
  P  P21  1  0.05010333  0.38343667  0.41666667  1
  P  P22  1  0.61656333  0.66666667  0.41666667  1
  P  P23  1  0.66666667  0.05010333  0.58333333  1
  P  P24  1  0.00000000  0.28323000  0.75000000  1
  P  P25  1  0.05010333  0.66666667  0.91666667  1
  P  P26  1  0.61656333  0.94989667  0.91666667  1
  P  P27  1  0.71677000  0.71677000  0.75000000  1
  P  P28  1  0.28323000  0.00000000  0.75000000  1
  P  P29  1  0.33333333  0.38343667  0.91666667  1
  O  O30  1  0.83159833  0.80359767  0.08551167  1
  O  O31  1  0.47026433  0.30533267  0.24782167  1
  O  O32  1  0.52234800  0.67961100  0.47590400  1
  O  O33  1  0.50940367  0.65372233  0.35742933  1
  O  O34  1  0.50173500  0.63866600  0.08115500  1
  O  O35  1  0.52973567  0.83506833  0.25217833  1
  O  O36  1  0.69466733  0.16493167  0.24782167  1
  O  O37  1  0.34627767  0.49059633  0.85742933  1
  O  O38  1  0.52234800  0.84273700  0.97590400  1
  O  O39  1  0.32038900  0.47765200  0.97590400  1
  O  O40  1  0.50940367  0.85568133  0.85742933  1
  O  O41  1  0.30533267  0.47026433  0.25217833  1
  O  O42  1  0.36133400  0.86306900  0.08115500  1
  O  O43  1  0.15726300  0.47765200  0.47590400  1
  O  O44  1  0.34627767  0.85568133  0.35742933  1
  O  O45  1  0.32038900  0.84273700  0.47590400  1
  O  O46  1  0.14431867  0.49059633  0.35742933  1
  O  O47  1  0.97199933  0.16840167  0.08551167  1
  O  O48  1  0.13693100  0.49826500  0.08115500  1
  O  O49  1  0.16493167  0.69466733  0.25217833  1
  O  O50  1  0.15726300  0.67961100  0.97590400  1
  O  O51  1  0.14431867  0.65372233  0.85742933  1
  O  O52  1  0.19640233  0.02800067  0.08551167  1
  O  O53  1  0.83506833  0.52973567  0.24782167  1
  O  O54  1  0.49826500  0.13693100  0.41884500  1
  O  O55  1  0.13693100  0.63866600  0.58115500  1
  O  O56  1  0.18901467  0.01294433  0.80923733  1
  O  O57  1  0.17607033  0.98705567  0.69076267  1
  O  O58  1  0.16840167  0.97199933  0.41448833  1
  O  O59  1  0.19640233  0.16840167  0.58551167  1
  O  O60  1  0.36133400  0.49826500  0.58115500  1
  O  O61  1  0.01294433  0.82392967  0.19076267  1
  O  O62  1  0.18901467  0.17607033  0.30923733  1
  O  O63  1  0.98705567  0.81098533  0.30923733  1
  O  O64  1  0.17607033  0.18901467  0.19076267  1
  O  O65  1  0.97199933  0.80359767  0.58551167  1
  O  O66  1  0.02800067  0.19640233  0.41448833  1
  O  O67  1  0.82392967  0.81098533  0.80923733  1
  O  O68  1  0.01294433  0.18901467  0.69076267  1
  O  O69  1  0.98705567  0.17607033  0.80923733  1
  O  O70  1  0.81098533  0.82392967  0.69076267  1
  O  O71  1  0.63866600  0.50173500  0.41884500  1
  O  O72  1  0.80359767  0.83159833  0.41448833  1
  O  O73  1  0.83159833  0.02800067  0.58551167  1
  O  O74  1  0.82392967  0.01294433  0.30923733  1
  O  O75  1  0.81098533  0.98705567  0.19076267  1
  O  O76  1  0.86306900  0.36133400  0.41884500  1
  O  O77  1  0.50173500  0.86306900  0.58115500  1
  O  O78  1  0.16493167  0.47026433  0.75217833  1
  O  O79  1  0.80359767  0.97199933  0.91448833  1
  O  O80  1  0.85568133  0.34627767  0.14257067  1
  O  O81  1  0.84273700  0.32038900  0.02409600  1
  O  O82  1  0.83506833  0.30533267  0.74782167  1
  O  O83  1  0.86306900  0.50173500  0.91884500  1
  O  O84  1  0.02800067  0.83159833  0.91448833  1
  O  O85  1  0.67961100  0.15726300  0.52409600  1
  O  O86  1  0.85568133  0.50940367  0.64257067  1
  O  O87  1  0.65372233  0.14431867  0.64257067  1
  O  O88  1  0.84273700  0.52234800  0.52409600  1
  O  O89  1  0.63866600  0.13693100  0.91884500  1
  O  O90  1  0.69466733  0.52973567  0.74782167  1
  O  O91  1  0.49059633  0.14431867  0.14257067  1
  O  O92  1  0.67961100  0.52234800  0.02409600  1
  O  O93  1  0.65372233  0.50940367  0.14257067  1
  O  O94  1  0.47765200  0.15726300  0.02409600  1
  O  O95  1  0.30533267  0.83506833  0.75217833  1
  O  O96  1  0.47026433  0.16493167  0.74782167  1
  O  O97  1  0.49826500  0.36133400  0.91884500  1
  O  O98  1  0.49059633  0.34627767  0.64257067  1
  O  O99  1  0.47765200  0.32038900  0.52409600  1
  O  O100  1  0.52973567  0.69466733  0.75217833  1
  O  O101  1  0.16840167  0.19640233  0.91448833  1
