# generated using pymatgen
data_LiFeF3
_symmetry_space_group_name_H-M   'P 1'
_cell_length_a   10.08393200
_cell_length_b   8.33720400
_cell_length_c   5.87188933
_cell_angle_alpha   90.00000000
_cell_angle_beta   93.32274795
_cell_angle_gamma   90.00000000
_symmetry_Int_Tables_number   1
_chemical_formula_structural   LiFeF3
_chemical_formula_sum   'Li8 Fe8 F24'
_cell_volume   492.83039438
_cell_formula_units_Z   8
loop_
 _symmetry_equiv_pos_site_id
 _symmetry_equiv_pos_as_xyz
  1  'x, y, z'
loop_
 _atom_site_type_symbol
 _atom_site_label
 _atom_site_symmetry_multiplicity
 _atom_site_fract_x
 _atom_site_fract_y
 _atom_site_fract_z
 _atom_site_occupancy
  Li  Li0  1  0.34505300  0.00000000  0.87013000  1
  Li  Li1  1  0.50000000  0.81974600  0.50000000  1
  Li  Li2  1  0.50000000  0.18025400  0.50000000  1
  Li  Li3  1  0.65494700  0.00000000  0.12987000  1
  Li  Li4  1  0.84505300  0.50000000  0.87013000  1
  Li  Li5  1  0.00000000  0.31974600  0.50000000  1
  Li  Li6  1  0.00000000  0.68025400  0.50000000  1
  Li  Li7  1  0.15494700  0.50000000  0.12987000  1
  Fe  Fe8  1  0.24634600  0.00000000  0.28263500  1
  Fe  Fe9  1  0.50000000  0.65723400  0.00000000  1
  Fe  Fe10  1  0.50000000  0.34276600  0.00000000  1
  Fe  Fe11  1  0.75365400  0.00000000  0.71736500  1
  Fe  Fe12  1  0.74634600  0.50000000  0.28263500  1
  Fe  Fe13  1  0.00000000  0.15723400  0.00000000  1
  Fe  Fe14  1  0.00000000  0.84276600  0.00000000  1
  Fe  Fe15  1  0.25365400  0.50000000  0.71736500  1
  F  F16  1  0.15457200  0.00000000  0.91701500  1
  F  F17  1  0.37579100  0.00000000  0.56495000  1
  F  F18  1  0.39894050  0.67082150  0.68250800  1
  F  F19  1  0.39894050  0.32917850  0.68250800  1
  F  F20  1  0.38195400  0.15694500  0.12628800  1
  F  F21  1  0.38195400  0.84305500  0.12628800  1
  F  F22  1  0.61804600  0.84305500  0.87371200  1
  F  F23  1  0.61804600  0.15694500  0.87371200  1
  F  F24  1  0.60105950  0.32917850  0.31749200  1
  F  F25  1  0.60105950  0.67082150  0.31749200  1
  F  F26  1  0.62420900  0.00000000  0.43505000  1
  F  F27  1  0.84542800  0.00000000  0.08298500  1
  F  F28  1  0.65457200  0.50000000  0.91701500  1
  F  F29  1  0.87579100  0.50000000  0.56495000  1
  F  F30  1  0.89894050  0.17082150  0.68250800  1
  F  F31  1  0.89894050  0.82917850  0.68250800  1
  F  F32  1  0.88195400  0.65694500  0.12628800  1
  F  F33  1  0.88195400  0.34305500  0.12628800  1
  F  F34  1  0.11804600  0.34305500  0.87371200  1
  F  F35  1  0.11804600  0.65694500  0.87371200  1
  F  F36  1  0.10105950  0.82917850  0.31749200  1
  F  F37  1  0.10105950  0.17082150  0.31749200  1
  F  F38  1  0.12420900  0.50000000  0.43505000  1
  F  F39  1  0.34542800  0.50000000  0.08298500  1
