# generated using pymatgen
data_Li5Cu2Ni5O12
_symmetry_space_group_name_H-M   'P 1'
_cell_length_a   5.24246200
_cell_length_b   8.61937400
_cell_length_c   9.63413135
_cell_angle_alpha   90.00000000
_cell_angle_beta   97.38198086
_cell_angle_gamma   90.00000000
_symmetry_Int_Tables_number   1
_chemical_formula_structural   Li5Cu2Ni5O12
_chemical_formula_sum   'Li10 Cu4 Ni10 O24'
_cell_volume   431.72677254
_cell_formula_units_Z   2
loop_
 _symmetry_equiv_pos_site_id
 _symmetry_equiv_pos_as_xyz
  1  'x, y, z'
loop_
 _atom_site_type_symbol
 _atom_site_label
 _atom_site_symmetry_multiplicity
 _atom_site_fract_x
 _atom_site_fract_y
 _atom_site_fract_z
 _atom_site_occupancy
  Li  Li0  1  0.25506400  0.90766000  0.25595900  1
  Li  Li1  1  0.24905150  0.08969150  0.74580700  1
  Li  Li2  1  0.74493600  0.90766000  0.74404100  1
  Li  Li3  1  0.75094850  0.08969150  0.25419300  1
  Li  Li4  1  0.50000000  0.41968800  0.50000000  1
  Li  Li5  1  0.75506400  0.40766000  0.25595900  1
  Li  Li6  1  0.74905150  0.58969150  0.74580700  1
  Li  Li7  1  0.24493600  0.40766000  0.74404100  1
  Li  Li8  1  0.25094850  0.58969150  0.25419300  1
  Li  Li9  1  0.00000000  0.91968800  0.50000000  1
  Cu  Cu10  1  0.50000000  0.76033000  0.50000000  1
  Cu  Cu11  1  0.50000000  0.24354400  0.00000000  1
  Cu  Cu12  1  0.00000000  0.26033000  0.50000000  1
  Cu  Cu13  1  0.00000000  0.74354400  0.00000000  1
  Ni  Ni14  1  0.50000000  0.58134600  0.00000000  1
  Ni  Ni15  1  0.75024050  0.24828250  0.74716600  1
  Ni  Ni16  1  0.24975950  0.24828250  0.25283400  1
  Ni  Ni17  1  0.50000000  0.90816300  0.00000000  1
  Ni  Ni18  1  0.50000000  0.08996700  0.50000000  1
  Ni  Ni19  1  0.00000000  0.08134600  0.00000000  1
  Ni  Ni20  1  0.25024050  0.74828250  0.74716600  1
  Ni  Ni21  1  0.74975950  0.74828250  0.25283400  1
  Ni  Ni22  1  0.00000000  0.40816300  0.00000000  1
  Ni  Ni23  1  0.00000000  0.58996700  0.50000000  1
  O  O24  1  0.87871800  0.10675700  0.61419400  1
  O  O25  1  0.12128200  0.10675700  0.38580600  1
  O  O26  1  0.42295000  0.74599200  0.14113000  1
  O  O27  1  0.57705000  0.74599200  0.85887000  1
  O  O28  1  0.39777150  0.92066450  0.61318700  1
  O  O29  1  0.60222850  0.92066450  0.38681300  1
  O  O30  1  0.37358850  0.08958750  0.11079200  1
  O  O31  1  0.62641150  0.08958750  0.88920800  1
  O  O32  1  0.42797850  0.24343050  0.63188700  1
  O  O33  1  0.57202150  0.24343050  0.36811300  1
  O  O34  1  0.87813500  0.89641600  0.11591200  1
  O  O35  1  0.12186500  0.89641600  0.88408800  1
  O  O36  1  0.37871800  0.60675700  0.61419400  1
  O  O37  1  0.62128200  0.60675700  0.38580600  1
  O  O38  1  0.92295000  0.24599200  0.14113000  1
  O  O39  1  0.07705000  0.24599200  0.85887000  1
  O  O40  1  0.89777150  0.42066450  0.61318700  1
  O  O41  1  0.10222850  0.42066450  0.38681300  1
  O  O42  1  0.87358850  0.58958750  0.11079200  1
  O  O43  1  0.12641150  0.58958750  0.88920800  1
  O  O44  1  0.92797850  0.74343050  0.63188700  1
  O  O45  1  0.07202150  0.74343050  0.36811300  1
  O  O46  1  0.37813500  0.39641600  0.11591200  1
  O  O47  1  0.62186500  0.39641600  0.88408800  1
