# generated using pymatgen
data_V12O29
_symmetry_space_group_name_H-M   'P 1'
_cell_length_a   28.45091000
_cell_length_b   3.67110800
_cell_length_c   10.32680936
_cell_angle_alpha   90.00000000
_cell_angle_beta   102.33228947
_cell_angle_gamma   90.00000000
_symmetry_Int_Tables_number   1
_chemical_formula_structural   V12O29
_chemical_formula_sum   'V24 O58'
_cell_volume   1053.70943406
_cell_formula_units_Z   2
loop_
 _symmetry_equiv_pos_site_id
 _symmetry_equiv_pos_as_xyz
  1  'x, y, z'
loop_
 _atom_site_type_symbol
 _atom_site_label
 _atom_site_symmetry_multiplicity
 _atom_site_fract_x
 _atom_site_fract_y
 _atom_site_fract_z
 _atom_site_occupancy
  V  V0  1  0.43750400  0.50000000  0.91376800  1
  V  V1  1  0.35122900  0.50000000  0.65683700  1
  V  V2  1  0.32150300  0.50000000  0.97335300  1
  V  V3  1  0.19753700  0.50000000  0.79261100  1
  V  V4  1  0.10792900  0.50000000  0.53214600  1
  V  V5  1  0.08627700  0.50000000  0.85570400  1
  V  V6  1  0.41372300  0.00000000  0.14429600  1
  V  V7  1  0.39207100  0.00000000  0.46785400  1
  V  V8  1  0.30246300  0.00000000  0.20738900  1
  V  V9  1  0.17849700  0.00000000  0.02664700  1
  V  V10  1  0.14877100  0.00000000  0.34316300  1
  V  V11  1  0.06249600  0.00000000  0.08623200  1
  V  V12  1  0.93750400  0.00000000  0.91376800  1
  V  V13  1  0.85122900  0.00000000  0.65683700  1
  V  V14  1  0.82150300  0.00000000  0.97335300  1
  V  V15  1  0.69753700  0.00000000  0.79261100  1
  V  V16  1  0.60792900  0.00000000  0.53214600  1
  V  V17  1  0.58627700  0.00000000  0.85570400  1
  V  V18  1  0.91372300  0.50000000  0.14429600  1
  V  V19  1  0.89207100  0.50000000  0.46785400  1
  V  V20  1  0.80246300  0.50000000  0.20738900  1
  V  V21  1  0.67849700  0.50000000  0.02664700  1
  V  V22  1  0.64877100  0.50000000  0.34316300  1
  V  V23  1  0.56249600  0.50000000  0.08623200  1
  O  O24  1  0.40069100  0.50000000  0.09738000  1
  O  O25  1  0.44159600  0.50000000  0.75939400  1
  O  O26  1  0.37541900  0.50000000  0.48507700  1
  O  O27  1  0.36154300  0.50000000  0.83896700  1
  O  O28  1  0.30682600  0.50000000  0.16014900  1
  O  O29  1  0.29395600  0.50000000  0.61195300  1
  O  O30  1  0.26350500  0.50000000  0.87770100  1
  O  O31  1  0.20157300  0.50000000  0.63863200  1
  O  O32  1  0.13091600  0.50000000  0.36455200  1
  O  O33  1  0.16656000  0.50000000  0.97528300  1
  O  O34  1  0.12334700  0.50000000  0.72141200  1
  O  O35  1  0.07108600  0.50000000  0.03897000  1
  O  O36  1  0.05057600  0.50000000  0.49748200  1
  O  O37  1  0.03280200  0.50000000  0.76637900  1
  O  O38  1  0.46719800  0.00000000  0.23362100  1
  O  O39  1  0.00000000  0.00000000  0.00000000  1
  O  O40  1  0.44942400  0.00000000  0.50251800  1
  O  O41  1  0.42891400  0.00000000  0.96103000  1
  O  O42  1  0.37665300  0.00000000  0.27858800  1
  O  O43  1  0.33344000  0.00000000  0.02471700  1
  O  O44  1  0.36908400  0.00000000  0.63544800  1
  O  O45  1  0.29842700  0.00000000  0.36136800  1
  O  O46  1  0.23649500  0.00000000  0.12229900  1
  O  O47  1  0.20604400  0.00000000  0.38804700  1
  O  O48  1  0.19317400  0.00000000  0.83985100  1
  O  O49  1  0.13845700  0.00000000  0.16103300  1
  O  O50  1  0.12458100  0.00000000  0.51492300  1
  O  O51  1  0.05840400  0.00000000  0.24060600  1
  O  O52  1  0.09930900  0.00000000  0.90262000  1
  O  O53  1  0.90069100  0.00000000  0.09738000  1
  O  O54  1  0.94159600  0.00000000  0.75939400  1
  O  O55  1  0.87541900  0.00000000  0.48507700  1
  O  O56  1  0.86154300  0.00000000  0.83896700  1
  O  O57  1  0.80682600  0.00000000  0.16014900  1
  O  O58  1  0.79395600  0.00000000  0.61195300  1
  O  O59  1  0.76350500  0.00000000  0.87770100  1
  O  O60  1  0.70157300  0.00000000  0.63863200  1
  O  O61  1  0.63091600  0.00000000  0.36455200  1
  O  O62  1  0.66656000  0.00000000  0.97528300  1
  O  O63  1  0.62334700  0.00000000  0.72141200  1
  O  O64  1  0.57108600  0.00000000  0.03897000  1
  O  O65  1  0.55057600  0.00000000  0.49748200  1
  O  O66  1  0.53280200  0.00000000  0.76637900  1
  O  O67  1  0.96719800  0.50000000  0.23362100  1
  O  O68  1  0.50000000  0.50000000  0.00000000  1
  O  O69  1  0.94942400  0.50000000  0.50251800  1
  O  O70  1  0.92891400  0.50000000  0.96103000  1
  O  O71  1  0.87665300  0.50000000  0.27858800  1
  O  O72  1  0.83344000  0.50000000  0.02471700  1
  O  O73  1  0.86908400  0.50000000  0.63544800  1
  O  O74  1  0.79842700  0.50000000  0.36136800  1
  O  O75  1  0.73649500  0.50000000  0.12229900  1
  O  O76  1  0.70604400  0.50000000  0.38804700  1
  O  O77  1  0.69317400  0.50000000  0.83985100  1
  O  O78  1  0.63845700  0.50000000  0.16103300  1
  O  O79  1  0.62458100  0.50000000  0.51492300  1
  O  O80  1  0.55840400  0.50000000  0.24060600  1
  O  O81  1  0.59930900  0.50000000  0.90262000  1
