# generated using pymatgen
data_Ba8Bi10O27
_symmetry_space_group_name_H-M   'P 1'
_cell_length_a   10.84679962
_cell_length_b   10.84679962
_cell_length_c   22.96777911
_cell_angle_alpha   90.00000000
_cell_angle_beta   90.00000000
_cell_angle_gamma   120.00000000
_symmetry_Int_Tables_number   1
_chemical_formula_structural   Ba8Bi10O27
_chemical_formula_sum   'Ba24 Bi30 O81'
_cell_volume   2340.19942988
_cell_formula_units_Z   3
loop_
 _symmetry_equiv_pos_site_id
 _symmetry_equiv_pos_as_xyz
  1  'x, y, z'
loop_
 _atom_site_type_symbol
 _atom_site_label
 _atom_site_symmetry_multiplicity
 _atom_site_fract_x
 _atom_site_fract_y
 _atom_site_fract_z
 _atom_site_occupancy
  Ba  Ba0  1  0.66223300  0.65348000  0.22645600  1
  Ba  Ba1  1  0.33333333  0.66666667  0.00151867  1
  Ba  Ba2  1  0.32014667  0.32458033  0.10687733  1
  Ba  Ba3  1  0.67541967  0.99556633  0.10687733  1
  Ba  Ba4  1  0.99124700  0.33776700  0.22645600  1
  Ba  Ba5  1  0.33333333  0.66666667  0.33181467  1
  Ba  Ba6  1  0.00443367  0.67985333  0.10687733  1
  Ba  Ba7  1  0.34652000  0.00875300  0.22645600  1
  Ba  Ba8  1  0.32889967  0.98681333  0.55978933  1
  Ba  Ba9  1  0.00000000  0.00000000  0.33485200  1
  Ba  Ba10  1  0.98681333  0.65791367  0.44021067  1
  Ba  Ba11  1  0.34208633  0.32889967  0.44021067  1
  Ba  Ba12  1  0.65791367  0.67110033  0.55978933  1
  Ba  Ba13  1  0.00000000  0.00000000  0.66514800  1
  Ba  Ba14  1  0.67110033  0.01318667  0.44021067  1
  Ba  Ba15  1  0.01318667  0.34208633  0.55978933  1
  Ba  Ba16  1  0.99556633  0.32014667  0.89312267  1
  Ba  Ba17  1  0.66666667  0.33333333  0.66818533  1
  Ba  Ba18  1  0.65348000  0.99124700  0.77354400  1
  Ba  Ba19  1  0.00875300  0.66223300  0.77354400  1
  Ba  Ba20  1  0.32458033  0.00443367  0.89312267  1
  Ba  Ba21  1  0.66666667  0.33333333  0.99848133  1
  Ba  Ba22  1  0.33776700  0.34652000  0.77354400  1
  Ba  Ba23  1  0.67985333  0.67541967  0.89312267  1
  Bi  Bi24  1  0.33333333  0.66666667  0.83271067  1
  Bi  Bi25  1  0.66796300  0.66788800  0.05618500  1
  Bi  Bi26  1  0.33455467  0.33325833  0.27714833  1
  Bi  Bi27  1  0.99992500  0.33203700  0.05618500  1
  Bi  Bi28  1  0.33333333  0.66666667  0.16666667  1
  Bi  Bi29  1  0.33211200  0.00007500  0.05618500  1
  Bi  Bi30  1  0.66674167  0.00129633  0.27714833  1
  Bi  Bi31  1  0.33333333  0.66666667  0.50062267  1
  Bi  Bi32  1  0.99870367  0.66544533  0.27714833  1
  Bi  Bi33  1  0.00000000  0.00000000  0.00000000  1
  Bi  Bi34  1  0.00000000  0.00000000  0.16604400  1
  Bi  Bi35  1  0.33462967  0.00122133  0.38951833  1
  Bi  Bi36  1  0.00122133  0.66659167  0.61048167  1
  Bi  Bi37  1  0.66659167  0.66537033  0.38951833  1
  Bi  Bi38  1  1.00000000  0.00000000  0.50000000  1
  Bi  Bi39  1  0.99877867  0.33340833  0.38951833  1
  Bi  Bi40  1  0.33340833  0.33462967  0.61048167  1
  Bi  Bi41  1  0.00000000  0.00000000  0.83395600  1
  Bi  Bi42  1  0.66537033  0.99877867  0.61048167  1
  Bi  Bi43  1  0.66666667  0.33333333  0.33333333  1
  Bi  Bi44  1  0.66666667  0.33333333  0.49937733  1
  Bi  Bi45  1  0.00129633  0.33455467  0.72285167  1
  Bi  Bi46  1  0.66788800  0.99992500  0.94381500  1
  Bi  Bi47  1  0.33325833  0.99870367  0.72285167  1
  Bi  Bi48  1  0.66666667  0.33333333  0.83333333  1
  Bi  Bi49  1  0.66544533  0.66674167  0.72285167  1
  Bi  Bi50  1  0.00007500  0.66796300  0.94381500  1
  Bi  Bi51  1  0.66666667  0.33333333  0.16728933  1
  Bi  Bi52  1  0.33203700  0.33211200  0.94381500  1
  Bi  Bi53  1  0.33333333  0.66666667  0.66666667  1
  O  O54  1  0.50974067  0.83318033  0.88656733  1
  O  O55  1  0.84343867  0.84801633  0.10153333  1
  O  O56  1  0.32343967  0.49025933  0.88656733  1
  O  O57  1  0.67999400  0.84015100  0.99978600  1
  O  O58  1  0.51468300  0.33791100  0.23180000  1
  O  O59  1  0.16015700  0.32000600  0.99978600  1
  O  O60  1  0.50597100  0.68098900  0.10961400  1
  O  O61  1  0.16681967  0.67656033  0.88656733  1
  O  O62  1  0.50681767  0.49349033  0.33354733  1
  O  O63  1  0.00457767  0.15656133  0.10153333  1
  O  O64  1  0.15984900  0.83984300  0.99978600  1
  O  O65  1  0.34765567  0.50835133  0.22371933  1
  O  O66  1  0.00000000  0.50000000  0.00000000  1
  O  O67  1  0.31901100  0.82498200  0.10961400  1
  O  O68  1  0.17501800  0.49402900  0.10961400  1
  O  O69  1  0.49164867  0.83930433  0.22371933  1
  O  O70  1  0.66208900  0.17677200  0.23180000  1
  O  O71  1  0.50650967  0.01332733  0.33354733  1
  O  O72  1  0.16069567  0.65234433  0.22371933  1
  O  O73  1  0.15198367  0.99542233  0.10153333  1
  O  O74  1  0.16666667  0.33333333  0.33333333  1
  O  O75  1  0.49984700  0.65677300  0.44676600  1
  O  O76  1  0.50000000  0.50000000  0.00000000  1
  O  O77  1  0.98667267  0.49318233  0.33354733  1
  O  O78  1  0.34322700  0.84307400  0.44676600  1
  O  O79  1  0.15692600  0.50015300  0.44676600  1
  O  O80  1  0.82322800  0.48531700  0.23180000  1
  O  O81  1  0.17640733  0.16651367  0.21990067  1
  O  O82  1  0.51010533  0.18134967  0.43486667  1
  O  O83  1  0.99010633  0.82359267  0.21990067  1
  O  O84  1  0.34666067  0.17348433  0.33311933  1
  O  O85  1  0.18134967  0.67124433  0.56513333  1
  O  O86  1  0.82682367  0.65333933  0.33311933  1
  O  O87  1  0.17263767  0.01432233  0.44294733  1
  O  O88  1  0.83348633  0.00989367  0.21990067  1
  O  O89  1  0.17348433  0.82682367  0.66688067  1
  O  O90  1  0.67124433  0.48989467  0.43486667  1
  O  O91  1  0.82651567  0.17317633  0.33311933  1
  O  O92  1  0.01432233  0.84168467  0.55705267  1
  O  O93  1  0.66666667  0.83333333  0.33333333  1
  O  O94  1  0.98567767  0.15831533  0.44294733  1
  O  O95  1  0.84168467  0.82736233  0.44294733  1
  O  O96  1  0.15831533  0.17263767  0.55705267  1
  O  O97  1  0.32875567  0.51010533  0.56513333  1
  O  O98  1  0.17317633  0.34666067  0.66688067  1
  O  O99  1  0.82736233  0.98567767  0.55705267  1
  O  O100  1  0.81865033  0.32875567  0.43486667  1
  O  O101  1  0.83333333  0.66666667  0.66666667  1
  O  O102  1  0.16651367  0.99010633  0.78009933  1
  O  O103  1  0.16666667  0.83333333  0.33333333  1
  O  O104  1  0.65333933  0.82651567  0.66688067  1
  O  O105  1  0.00989367  0.17640733  0.78009933  1
  O  O106  1  0.82359267  0.83348633  0.78009933  1
  O  O107  1  0.48989467  0.81865033  0.56513333  1
  O  O108  1  0.84307400  0.49984700  0.55323400  1
  O  O109  1  0.17677200  0.51468300  0.76820000  1
  O  O110  1  0.65677300  0.15692600  0.55323400  1
  O  O111  1  0.01332733  0.50681767  0.66645267  1
  O  O112  1  0.84801633  0.00457767  0.89846667  1
  O  O113  1  0.49349033  0.98667267  0.66645267  1
  O  O114  1  0.83930433  0.34765567  0.77628067  1
  O  O115  1  0.50015300  0.34322700  0.55323400  1
  O  O116  1  0.84015100  0.16015700  0.00021400  1
  O  O117  1  0.33791100  0.82322800  0.76820000  1
  O  O118  1  0.49318233  0.50650967  0.66645267  1
  O  O119  1  0.68098900  0.17501800  0.89038600  1
  O  O120  1  0.33333333  0.16666667  0.66666667  1
  O  O121  1  0.65234433  0.49164867  0.77628067  1
  O  O122  1  0.50835133  0.16069567  0.77628067  1
  O  O123  1  0.82498200  0.50597100  0.89038600  1
  O  O124  1  0.99542233  0.84343867  0.89846667  1
  O  O125  1  0.83984300  0.67999400  0.00021400  1
  O  O126  1  0.49402900  0.31901100  0.89038600  1
  O  O127  1  0.48531700  0.66208900  0.76820000  1
  O  O128  1  0.50000000  0.00000000  0.00000000  1
  O  O129  1  0.83318033  0.32343967  0.11343267  1
  O  O130  1  0.83333333  0.16666667  0.66666667  1
  O  O131  1  0.32000600  0.15984900  0.00021400  1
  O  O132  1  0.67656033  0.50974067  0.11343267  1
  O  O133  1  0.49025933  0.16681967  0.11343267  1
  O  O134  1  0.15656133  0.15198367  0.89846667  1
