# generated using pymatgen
data_Li2Fe3NiO8
_symmetry_space_group_name_H-M   'P 1'
_cell_length_a   5.75214821
_cell_length_b   5.75214821
_cell_length_c   14.53276629
_cell_angle_alpha   90.00000000
_cell_angle_beta   90.00000000
_cell_angle_gamma   120.00000000
_symmetry_Int_Tables_number   1
_chemical_formula_structural   Li2Fe3NiO8
_chemical_formula_sum   'Li6 Fe9 Ni3 O24'
_cell_volume   416.42716844
_cell_formula_units_Z   3
loop_
 _symmetry_equiv_pos_site_id
 _symmetry_equiv_pos_as_xyz
  1  'x, y, z'
loop_
 _atom_site_type_symbol
 _atom_site_label
 _atom_site_symmetry_multiplicity
 _atom_site_fract_x
 _atom_site_fract_y
 _atom_site_fract_z
 _atom_site_occupancy
  Li  Li0  1  0.66666667  0.33333333  0.21164333  1
  Li  Li1  1  0.00000000  0.00000000  0.12169000  1
  Li  Li2  1  0.33333333  0.66666667  0.54497667  1
  Li  Li3  1  0.66666667  0.33333333  0.45502333  1
  Li  Li4  1  0.00000000  0.00000000  0.87831000  1
  Li  Li5  1  0.33333333  0.66666667  0.78835667  1
  Fe  Fe6  1  0.00000000  0.50000000  0.00000000  1
  Fe  Fe7  1  0.50000000  0.00000000  0.00000000  1
  Fe  Fe8  1  0.50000000  0.50000000  0.00000000  1
  Fe  Fe9  1  0.66666667  0.83333333  0.33333333  1
  Fe  Fe10  1  0.16666667  0.33333333  0.33333333  1
  Fe  Fe11  1  0.16666667  0.83333333  0.33333333  1
  Fe  Fe12  1  0.33333333  0.16666667  0.66666667  1
  Fe  Fe13  1  0.83333333  0.66666667  0.66666667  1
  Fe  Fe14  1  0.83333333  0.16666667  0.66666667  1
  Ni  Ni15  1  0.33333333  0.66666667  0.16666667  1
  Ni  Ni16  1  1.00000000  1.00000000  0.50000000  1
  Ni  Ni17  1  0.66666667  0.33333333  0.83333333  1
  O  O18  1  0.66666667  0.33333333  0.07144833  1
  O  O19  1  0.48578467  0.51421533  0.26212633  1
  O  O20  1  0.48578467  0.97156933  0.26212633  1
  O  O21  1  0.02843067  0.51421533  0.26212633  1
  O  O22  1  0.63823600  0.81911800  0.07120700  1
  O  O23  1  0.18088200  0.36176400  0.07120700  1
  O  O24  1  0.18088200  0.81911800  0.07120700  1
  O  O25  1  0.00000000  0.00000000  0.26188500  1
  O  O26  1  0.33333333  0.66666667  0.40478167  1
  O  O27  1  0.15245133  0.84754867  0.59545967  1
  O  O28  1  0.15245133  0.30490267  0.59545967  1
  O  O29  1  0.69509733  0.84754867  0.59545967  1
  O  O30  1  0.30490267  0.15245133  0.40454033  1
  O  O31  1  0.84754867  0.69509733  0.40454033  1
  O  O32  1  0.84754867  0.15245133  0.40454033  1
  O  O33  1  0.66666667  0.33333333  0.59521833  1
  O  O34  1  0.00000000  0.00000000  0.73811500  1
  O  O35  1  0.81911800  0.18088200  0.92879300  1
  O  O36  1  0.81911800  0.63823600  0.92879300  1
  O  O37  1  0.36176400  0.18088200  0.92879300  1
  O  O38  1  0.97156933  0.48578467  0.73787367  1
  O  O39  1  0.51421533  0.02843067  0.73787367  1
  O  O40  1  0.51421533  0.48578467  0.73787367  1
  O  O41  1  0.33333333  0.66666667  0.92855167  1
