# generated using pymatgen
data_LiVSiO4
_symmetry_space_group_name_H-M   'P 1'
_cell_length_a   5.09935100
_cell_length_b   6.85232104
_cell_length_c   10.49885505
_cell_angle_alpha   90.00000000
_cell_angle_beta   90.00000000
_cell_angle_gamma   90.00000000
_symmetry_Int_Tables_number   1
_chemical_formula_structural   LiVSiO4
_chemical_formula_sum   'Li4 V4 Si4 O16'
_cell_volume   366.85508917
_cell_formula_units_Z   4
loop_
 _symmetry_equiv_pos_site_id
 _symmetry_equiv_pos_as_xyz
  1  'x, y, z'
loop_
 _atom_site_type_symbol
 _atom_site_label
 _atom_site_symmetry_multiplicity
 _atom_site_fract_x
 _atom_site_fract_y
 _atom_site_fract_z
 _atom_site_occupancy
  Li  Li0  1  0.75572700  0.99622400  0.64948950  1
  Li  Li1  1  0.25572700  0.49622400  0.85051050  1
  Li  Li2  1  0.75572700  0.50377600  0.14948950  1
  Li  Li3  1  0.25572700  0.00377600  0.35051050  1
  V  V4  1  0.25366300  0.99024300  0.83329150  1
  V  V5  1  0.75366300  0.00975700  0.16670850  1
  V  V6  1  0.75366300  0.49024300  0.66670850  1
  V  V7  1  0.25366300  0.50975700  0.33329150  1
  Si  Si8  1  0.25016500  0.73935800  0.59472450  1
  Si  Si9  1  0.75016500  0.23935800  0.90527550  1
  Si  Si10  1  0.25016500  0.76064200  0.09472450  1
  Si  Si11  1  0.75016500  0.26064200  0.40527550  1
  O  O12  1  0.81071100  0.26370800  0.55915250  1
  O  O13  1  0.31071100  0.76370800  0.94084750  1
  O  O14  1  0.81071100  0.23629200  0.05915250  1
  O  O15  1  0.31071100  0.73629200  0.44084750  1
  O  O16  1  0.93210600  0.73185800  0.62281550  1
  O  O17  1  0.43210600  0.23185800  0.87718450  1
  O  O18  1  0.93210600  0.76814200  0.12281550  1
  O  O19  1  0.43210600  0.26814200  0.37718450  1
  O  O20  1  0.36888700  0.93948100  0.65979250  1
  O  O21  1  0.86888700  0.43948100  0.84020750  1
  O  O22  1  0.36888700  0.56051900  0.15979250  1
  O  O23  1  0.86888700  0.06051900  0.34020750  1
  O  O24  1  0.38287600  0.55030600  0.66785150  1
  O  O25  1  0.88287600  0.05030600  0.83214850  1
  O  O26  1  0.38287600  0.94969400  0.16785150  1
  O  O27  1  0.88287600  0.44969400  0.33214850  1
