# generated using pymatgen
data_CoBO3
_symmetry_space_group_name_H-M   'P 1'
_cell_length_a   5.26609000
_cell_length_b   8.88562200
_cell_length_c   9.91326240
_cell_angle_alpha   90.00000000
_cell_angle_beta   90.07458140
_cell_angle_gamma   90.00000000
_symmetry_Int_Tables_number   1
_chemical_formula_structural   CoBO3
_chemical_formula_sum   'Co8 B8 O24'
_cell_volume   463.86579066
_cell_formula_units_Z   8
loop_
 _symmetry_equiv_pos_site_id
 _symmetry_equiv_pos_as_xyz
  1  'x, y, z'
loop_
 _atom_site_type_symbol
 _atom_site_label
 _atom_site_symmetry_multiplicity
 _atom_site_fract_x
 _atom_site_fract_y
 _atom_site_fract_z
 _atom_site_occupancy
  Co  Co0  1  0.33981650  0.16212050  0.12422700  1
  Co  Co1  1  0.66018350  0.16212050  0.37577300  1
  Co  Co2  1  0.33981650  0.83787950  0.62422700  1
  Co  Co3  1  0.66018350  0.83787950  0.87577300  1
  Co  Co4  1  0.83981650  0.66212050  0.12422700  1
  Co  Co5  1  0.16018350  0.66212050  0.37577300  1
  Co  Co6  1  0.83981650  0.33787950  0.62422700  1
  Co  Co7  1  0.16018350  0.33787950  0.87577300  1
  B  B8  1  0.33340950  0.16962050  0.62405200  1
  B  B9  1  0.66659050  0.16962050  0.87594800  1
  B  B10  1  0.33340950  0.83037950  0.12405200  1
  B  B11  1  0.66659050  0.83037950  0.37594800  1
  B  B12  1  0.83340950  0.66962050  0.62405200  1
  B  B13  1  0.16659050  0.66962050  0.87594800  1
  B  B14  1  0.83340950  0.33037950  0.12405200  1
  B  B15  1  0.16659050  0.33037950  0.37594800  1
  O  O16  1  0.31005450  0.21045150  0.32748700  1
  O  O17  1  0.42610600  0.19504300  0.92622300  1
  O  O18  1  0.23316500  0.02787100  0.62507800  1
  O  O19  1  0.57389400  0.19504300  0.57377700  1
  O  O20  1  0.68994550  0.21045150  0.17251300  1
  O  O21  1  0.23316500  0.97212900  0.12507800  1
  O  O22  1  0.76683500  0.02787100  0.87492200  1
  O  O23  1  0.31005450  0.78954850  0.82748700  1
  O  O24  1  0.42610600  0.80495700  0.42622300  1
  O  O25  1  0.76683500  0.97212900  0.37492200  1
  O  O26  1  0.57389400  0.80495700  0.07377700  1
  O  O27  1  0.68994550  0.78954850  0.67251300  1
  O  O28  1  0.81005450  0.71045150  0.32748700  1
  O  O29  1  0.92610600  0.69504300  0.92622300  1
  O  O30  1  0.73316500  0.52787100  0.62507800  1
  O  O31  1  0.07389400  0.69504300  0.57377700  1
  O  O32  1  0.18994550  0.71045150  0.17251300  1
  O  O33  1  0.73316500  0.47212900  0.12507800  1
  O  O34  1  0.26683500  0.52787100  0.87492200  1
  O  O35  1  0.81005450  0.28954850  0.82748700  1
  O  O36  1  0.92610600  0.30495700  0.42622300  1
  O  O37  1  0.26683500  0.47212900  0.37492200  1
  O  O38  1  0.07389400  0.30495700  0.07377700  1
  O  O39  1  0.18994550  0.28954850  0.67251300  1
