# generated using pymatgen
data_FeOF
_symmetry_space_group_name_H-M   'P 1'
_cell_length_a   9.50637166
_cell_length_b   3.09677400
_cell_length_c   14.34589473
_cell_angle_alpha   90.00000000
_cell_angle_beta   90.67531202
_cell_angle_gamma   90.00000000
_symmetry_Int_Tables_number   1
_chemical_formula_structural   FeOF
_chemical_formula_sum   'Fe12 O12 F12'
_cell_volume   422.30067410
_cell_formula_units_Z   12
loop_
 _symmetry_equiv_pos_site_id
 _symmetry_equiv_pos_as_xyz
  1  'x, y, z'
loop_
 _atom_site_type_symbol
 _atom_site_label
 _atom_site_symmetry_multiplicity
 _atom_site_fract_x
 _atom_site_fract_y
 _atom_site_fract_z
 _atom_site_occupancy
  Fe  Fe0  1  0.97904300  0.00000000  0.99960800  1
  Fe  Fe1  1  0.99030700  0.00000000  0.66184900  1
  Fe  Fe2  1  0.98106800  0.00000000  0.33379700  1
  Fe  Fe3  1  0.73910200  0.50000000  0.85531700  1
  Fe  Fe4  1  0.77090800  0.50000000  0.50067100  1
  Fe  Fe5  1  0.77145800  0.50000000  0.16642700  1
  Fe  Fe6  1  0.48042300  0.00000000  0.66963800  1
  Fe  Fe7  1  0.48997700  0.00000000  0.99638700  1
  Fe  Fe8  1  0.47911000  0.00000000  0.33039900  1
  Fe  Fe9  1  0.27108000  0.50000000  0.83603200  1
  Fe  Fe10  1  0.27806400  0.50000000  0.49779200  1
  Fe  Fe11  1  0.27577000  0.50000000  0.16064400  1
  O  O12  1  0.90353200  0.50000000  0.40079000  1
  O  O13  1  0.90257600  0.50000000  0.06347900  1
  O  O14  1  0.84839000  0.00000000  0.89453800  1
  O  O15  1  0.84797900  0.00000000  0.23196000  1
  O  O16  1  0.85157400  0.00000000  0.56919400  1
  O  O17  1  0.59184600  0.50000000  0.93786300  1
  O  O18  1  0.40092200  0.50000000  0.73045600  1
  O  O19  1  0.40363800  0.50000000  0.06342700  1
  O  O20  1  0.40686400  0.50000000  0.39614000  1
  O  O21  1  0.33990100  0.00000000  0.89659200  1
  O  O22  1  0.34660400  0.00000000  0.56470400  1
  O  O23  1  0.34679900  0.00000000  0.22933200  1
  F  F24  1  0.90559900  0.50000000  0.72993600  1
  F  F25  1  0.65390600  0.00000000  0.76434400  1
  F  F26  1  0.65686300  0.00000000  0.43789400  1
  F  F27  1  0.65512300  0.00000000  0.10664900  1
  F  F28  1  0.59948900  0.50000000  0.60022300  1
  F  F29  1  0.59891500  0.50000000  0.26970700  1
  F  F30  1  0.14242500  0.00000000  0.76242400  1
  F  F31  1  0.15126000  0.00000000  0.09951300  1
  F  F32  1  0.15308300  0.00000000  0.43613100  1
  F  F33  1  0.09503200  0.50000000  0.93249600  1
  F  F34  1  0.09627000  0.50000000  0.60255900  1
  F  F35  1  0.09510000  0.50000000  0.27108700  1
