# generated using pymatgen
data_Li3MnP2HO8
_symmetry_space_group_name_H-M   'P 1'
_cell_length_a   4.95988300
_cell_length_b   8.42345200
_cell_length_c   7.77031512
_cell_angle_alpha   90.00000000
_cell_angle_beta   103.70204899
_cell_angle_gamma   90.00000000
_symmetry_Int_Tables_number   1
_chemical_formula_structural   Li3MnP2HO8
_chemical_formula_sum   'Li6 Mn2 P4 H2 O16'
_cell_volume   315.39960525
_cell_formula_units_Z   2
loop_
 _symmetry_equiv_pos_site_id
 _symmetry_equiv_pos_as_xyz
  1  'x, y, z'
loop_
 _atom_site_type_symbol
 _atom_site_label
 _atom_site_symmetry_multiplicity
 _atom_site_fract_x
 _atom_site_fract_y
 _atom_site_fract_z
 _atom_site_occupancy
  Li  Li0  1  0.91912900  0.20647100  0.68387000  1
  Li  Li1  1  0.86482800  0.35995700  0.38805200  1
  Li  Li2  1  0.13517200  0.85995700  0.61194800  1
  Li  Li3  1  0.08087100  0.70647100  0.31613000  1
  Li  Li4  1  0.39014200  0.15347600  0.94427800  1
  Li  Li5  1  0.60985800  0.65347600  0.05572200  1
  Mn  Mn6  1  0.24951700  0.50346000  0.74810700  1
  Mn  Mn7  1  0.75048300  0.00346000  0.25189300  1
  P  P8  1  0.88434800  0.35745400  0.02621100  1
  P  P9  1  0.11565200  0.85745400  0.97378900  1
  P  P10  1  0.37732300  0.14234500  0.52923200  1
  P  P11  1  0.62267700  0.64234500  0.47076800  1
  H  H12  1  0.29700100  0.50037600  0.24232800  1
  H  H13  1  0.70299900  0.00037600  0.75767200  1
  O  O14  1  0.82581000  0.51945200  0.57319000  1
  O  O15  1  0.75876700  0.20485800  0.08601600  1
  O  O16  1  0.91353600  0.81518300  0.09361000  1
  O  O17  1  0.03967100  0.44628500  0.19990200  1
  O  O18  1  0.17419000  0.01945200  0.42681000  1
  O  O19  1  0.21779300  0.29150800  0.56490200  1
  O  O20  1  0.96032900  0.94628500  0.80009800  1
  O  O21  1  0.08646400  0.31518300  0.90639000  1
  O  O22  1  0.37298100  0.67784100  0.55264600  1
  O  O23  1  0.50648100  0.07189600  0.72321800  1
  O  O24  1  0.24123300  0.70485800  0.91398400  1
  O  O25  1  0.34856800  0.96591000  0.07717100  1
  O  O26  1  0.49351900  0.57189600  0.27678200  1
  O  O27  1  0.62701900  0.17784100  0.44735400  1
  O  O28  1  0.78220700  0.79150800  0.43509800  1
  O  O29  1  0.65143200  0.46591000  0.92282900  1
