# generated using pymatgen
data_Li3MnO2F
_symmetry_space_group_name_H-M   'P 1'
_cell_length_a   3.55013000
_cell_length_b   9.02285000
_cell_length_c   9.97236000
_cell_angle_alpha   90.00000000
_cell_angle_beta   90.00000000
_cell_angle_gamma   90.00000000
_symmetry_Int_Tables_number   1
_chemical_formula_structural   Li3MnO2F
_chemical_formula_sum   'Li12 Mn4 O8 F4'
_cell_volume   319.43753220
_cell_formula_units_Z   4
loop_
 _symmetry_equiv_pos_site_id
 _symmetry_equiv_pos_as_xyz
  1  'x, y, z'
loop_
 _atom_site_type_symbol
 _atom_site_label
 _atom_site_symmetry_multiplicity
 _atom_site_fract_x
 _atom_site_fract_y
 _atom_site_fract_z
 _atom_site_occupancy
  Li  Li0  1  0.00000000  0.09544300  0.84359150  1
  Li  Li1  1  0.50000000  0.15361800  0.07207350  1
  Li  Li2  1  0.50000000  0.16726200  0.68044550  1
  Li  Li3  1  0.00000000  0.33273800  0.18044550  1
  Li  Li4  1  0.00000000  0.34638200  0.57207350  1
  Li  Li5  1  0.50000000  0.40455700  0.34359150  1
  Li  Li6  1  0.50000000  0.59544300  0.65640850  1
  Li  Li7  1  0.00000000  0.65361800  0.42792650  1
  Li  Li8  1  0.00000000  0.66726200  0.81955450  1
  Li  Li9  1  0.50000000  0.83273800  0.31955450  1
  Li  Li10  1  0.50000000  0.84638200  0.92792650  1
  Li  Li11  1  0.00000000  0.90455700  0.15640850  1
  Mn  Mn12  1  0.00000000  0.11528700  0.39821150  1
  Mn  Mn13  1  0.50000000  0.38471300  0.89821150  1
  Mn  Mn14  1  0.50000000  0.61528700  0.10178850  1
  Mn  Mn15  1  0.00000000  0.88471300  0.60178850  1
  O  O16  1  0.00000000  0.10604900  0.61639050  1
  O  O17  1  0.50000000  0.16982900  0.87814350  1
  O  O18  1  0.00000000  0.33017100  0.37814350  1
  O  O19  1  0.50000000  0.39395100  0.11639050  1
  O  O20  1  0.50000000  0.60604900  0.88360950  1
  O  O21  1  0.00000000  0.66982900  0.62185650  1
  O  O22  1  0.50000000  0.83017100  0.12185650  1
  O  O23  1  0.00000000  0.89395100  0.38360950  1
  F  F24  1  0.00000000  0.11768500  0.14541550  1
  F  F25  1  0.50000000  0.38231500  0.64541550  1
  F  F26  1  0.50000000  0.61768500  0.35458450  1
  F  F27  1  0.00000000  0.88231500  0.85458450  1
