# generated using pymatgen
data_Li2Fe2CoO6
_symmetry_space_group_name_H-M   'P 1'
_cell_length_a   13.20269000
_cell_length_b   2.86159000
_cell_length_c   5.87175218
_cell_angle_alpha   90.00000000
_cell_angle_beta   105.27798626
_cell_angle_gamma   90.00000000
_symmetry_Int_Tables_number   1
_chemical_formula_structural   Li2Fe2CoO6
_chemical_formula_sum   'Li4 Fe4 Co2 O12'
_cell_volume   213.99875770
_cell_formula_units_Z   2
loop_
 _symmetry_equiv_pos_site_id
 _symmetry_equiv_pos_as_xyz
  1  'x, y, z'
loop_
 _atom_site_type_symbol
 _atom_site_label
 _atom_site_symmetry_multiplicity
 _atom_site_fract_x
 _atom_site_fract_y
 _atom_site_fract_z
 _atom_site_occupancy
  Li  Li0  1  0.35078300  0.00000000  0.69534600  1
  Li  Li1  1  0.14921700  0.50000000  0.30465400  1
  Li  Li2  1  0.85078300  0.50000000  0.69534600  1
  Li  Li3  1  0.64921700  0.00000000  0.30465400  1
  Fe  Fe4  1  0.33990200  0.00000000  0.16650800  1
  Fe  Fe5  1  0.16009800  0.50000000  0.83349200  1
  Fe  Fe6  1  0.83990200  0.50000000  0.16650800  1
  Fe  Fe7  1  0.66009800  0.00000000  0.83349200  1
  Co  Co8  1  0.00000000  0.00000000  0.50000000  1
  Co  Co9  1  0.50000000  0.50000000  0.50000000  1
  O  O10  1  0.49506800  0.00000000  0.28490300  1
  O  O11  1  0.34590800  0.50000000  0.40169700  1
  O  O12  1  0.17631500  0.00000000  0.06834200  1
  O  O13  1  0.32368500  0.50000000  0.93165800  1
  O  O14  1  0.15409200  0.00000000  0.59830300  1
  O  O15  1  0.00493200  0.50000000  0.71509700  1
  O  O16  1  0.99506800  0.50000000  0.28490300  1
  O  O17  1  0.84590800  0.00000000  0.40169700  1
  O  O18  1  0.67631500  0.50000000  0.06834200  1
  O  O19  1  0.82368500  0.00000000  0.93165800  1
  O  O20  1  0.65409200  0.50000000  0.59830300  1
  O  O21  1  0.50493200  0.00000000  0.71509700  1
