# generated using pymatgen
data_Li4FeO3F
_symmetry_space_group_name_H-M   'P 1'
_cell_length_a   8.06441400
_cell_length_b   7.88013800
_cell_length_c   6.25795703
_cell_angle_alpha   90.00000000
_cell_angle_beta   90.70373152
_cell_angle_gamma   90.00000000
_symmetry_Int_Tables_number   1
_chemical_formula_structural   Li4FeO3F
_chemical_formula_sum   'Li16 Fe4 O12 F4'
_cell_volume   397.65500704
_cell_formula_units_Z   4
loop_
 _symmetry_equiv_pos_site_id
 _symmetry_equiv_pos_as_xyz
  1  'x, y, z'
loop_
 _atom_site_type_symbol
 _atom_site_label
 _atom_site_symmetry_multiplicity
 _atom_site_fract_x
 _atom_site_fract_y
 _atom_site_fract_z
 _atom_site_occupancy
  Li  Li0  1  0.91214200  0.05638100  0.30482500  1
  Li  Li1  1  0.17385450  0.99831050  0.49935600  1
  Li  Li2  1  0.17385450  0.00168950  0.99935600  1
  Li  Li3  1  0.51667500  0.83933500  0.21642700  1
  Li  Li4  1  0.73171350  0.87489450  0.48583500  1
  Li  Li5  1  0.51667500  0.16066500  0.71642700  1
  Li  Li6  1  0.73171350  0.12510550  0.98583500  1
  Li  Li7  1  0.91214200  0.94361900  0.80482500  1
  Li  Li8  1  0.41214200  0.55638100  0.30482500  1
  Li  Li9  1  0.67385450  0.49831050  0.49935600  1
  Li  Li10  1  0.67385450  0.50168950  0.99935600  1
  Li  Li11  1  0.01667500  0.33933500  0.21642700  1
  Li  Li12  1  0.23171350  0.37489450  0.48583500  1
  Li  Li13  1  0.01667500  0.66066500  0.71642700  1
  Li  Li14  1  0.23171350  0.62510550  0.98583500  1
  Li  Li15  1  0.41214200  0.44361900  0.80482500  1
  Fe  Fe16  1  0.50866800  0.80876600  0.75056600  1
  Fe  Fe17  1  0.50866800  0.19123400  0.25056600  1
  Fe  Fe18  1  0.00866800  0.30876600  0.75056600  1
  Fe  Fe19  1  0.00866800  0.69123400  0.25056600  1
  O  O20  1  0.47604700  0.66412300  0.98584300  1
  O  O21  1  0.54272050  0.70856750  0.48501300  1
  O  O22  1  0.67738150  0.96901650  0.76139900  1
  O  O23  1  0.67738150  0.03098350  0.26139900  1
  O  O24  1  0.54272050  0.29143250  0.98501300  1
  O  O25  1  0.47604700  0.33587700  0.48584300  1
  O  O26  1  0.97604700  0.16412300  0.98584300  1
  O  O27  1  0.04272050  0.20856750  0.48501300  1
  O  O28  1  0.17738150  0.46901650  0.76139900  1
  O  O29  1  0.17738150  0.53098350  0.26139900  1
  O  O30  1  0.04272050  0.79143250  0.98501300  1
  O  O31  1  0.97604700  0.83587700  0.48584300  1
  F  F32  1  0.32113000  0.01407400  0.24370700  1
  F  F33  1  0.32113000  0.98592600  0.74370700  1
  F  F34  1  0.82113000  0.51407400  0.24370700  1
  F  F35  1  0.82113000  0.48592600  0.74370700  1
