# generated using pymatgen
data_Li4NbCr5O12
_symmetry_space_group_name_H-M   'P 1'
_cell_length_a   5.21654294
_cell_length_b   9.04374521
_cell_length_c   10.46507013
_cell_angle_alpha   90.00000000
_cell_angle_beta   96.57696251
_cell_angle_gamma   90.00000000
_symmetry_Int_Tables_number   1
_chemical_formula_structural   Li4NbCr5O12
_chemical_formula_sum   'Li8 Nb2 Cr10 O24'
_cell_volume   490.46234030
_cell_formula_units_Z   2
loop_
 _symmetry_equiv_pos_site_id
 _symmetry_equiv_pos_as_xyz
  1  'x, y, z'
loop_
 _atom_site_type_symbol
 _atom_site_label
 _atom_site_symmetry_multiplicity
 _atom_site_fract_x
 _atom_site_fract_y
 _atom_site_fract_z
 _atom_site_occupancy
  Li  Li0  1  0.78794175  0.66904075  0.79143100  1
  Li  Li1  1  0.21205825  0.66904075  0.20856900  1
  Li  Li2  1  0.28794175  0.83095925  0.79143100  1
  Li  Li3  1  0.71205825  0.83095925  0.20856900  1
  Li  Li4  1  0.28794175  0.16904075  0.79143100  1
  Li  Li5  1  0.71205825  0.16904075  0.20856900  1
  Li  Li6  1  0.78794175  0.33095925  0.79143100  1
  Li  Li7  1  0.21205825  0.33095925  0.20856900  1
  Nb  Nb8  1  0.00000000  0.00000000  0.50000000  1
  Nb  Nb9  1  0.50000000  0.50000000  0.50000000  1
  Cr  Cr10  1  0.50000000  0.66224975  0.00000000  1
  Cr  Cr11  1  0.00000000  0.66567425  0.50000000  1
  Cr  Cr12  1  0.50000000  0.83432575  0.50000000  1
  Cr  Cr13  1  0.00000000  0.50000000  0.00000000  1
  Cr  Cr14  1  0.00000000  0.83775025  0.00000000  1
  Cr  Cr15  1  0.00000000  0.16224975  0.00000000  1
  Cr  Cr16  1  0.50000000  0.16567425  0.50000000  1
  Cr  Cr17  1  0.00000000  0.33432575  0.50000000  1
  Cr  Cr18  1  0.50000000  0.00000000  0.00000000  1
  Cr  Cr19  1  0.50000000  0.33775025  0.00000000  1
  O  O20  1  0.15449625  0.00000000  0.89452100  1
  O  O21  1  0.84550375  0.00000000  0.10547900  1
  O  O22  1  0.80994175  0.50000000  0.40339700  1
  O  O23  1  0.19005825  0.50000000  0.59660300  1
  O  O24  1  0.81029950  0.83333300  0.39876600  1
  O  O25  1  0.18970050  0.83333300  0.60123400  1
  O  O26  1  0.31029950  0.66666700  0.39876600  1
  O  O27  1  0.68970050  0.66666700  0.60123400  1
  O  O28  1  0.86315125  0.67244025  0.10370500  1
  O  O29  1  0.13684875  0.67244025  0.89629500  1
  O  O30  1  0.36315125  0.82755975  0.10370500  1
  O  O31  1  0.63684875  0.82755975  0.89629500  1
  O  O32  1  0.65449625  0.50000000  0.89452100  1
  O  O33  1  0.34550375  0.50000000  0.10547900  1
  O  O34  1  0.30994175  0.00000000  0.40339700  1
  O  O35  1  0.69005825  0.00000000  0.59660300  1
  O  O36  1  0.31029950  0.33333300  0.39876600  1
  O  O37  1  0.68970050  0.33333300  0.60123400  1
  O  O38  1  0.81029950  0.16666700  0.39876600  1
  O  O39  1  0.18970050  0.16666700  0.60123400  1
  O  O40  1  0.36315125  0.17244025  0.10370500  1
  O  O41  1  0.63684875  0.17244025  0.89629500  1
  O  O42  1  0.86315125  0.32755975  0.10370500  1
  O  O43  1  0.13684875  0.32755975  0.89629500  1
