# generated using pymatgen
data_K2LiMnPCO7
_symmetry_space_group_name_H-M   'P 1'
_cell_length_a   5.34848018
_cell_length_b   7.11079512
_cell_length_c   9.98367790
_cell_angle_alpha   90.00000000
_cell_angle_beta   91.77487288
_cell_angle_gamma   90.00000000
_symmetry_Int_Tables_number   1
_chemical_formula_structural   K2LiMnPCO7
_chemical_formula_sum   'K4 Li2 Mn2 P2 C2 O14'
_cell_volume   379.51654241
_cell_formula_units_Z   2
loop_
 _symmetry_equiv_pos_site_id
 _symmetry_equiv_pos_as_xyz
  1  'x, y, z'
loop_
 _atom_site_type_symbol
 _atom_site_label
 _atom_site_symmetry_multiplicity
 _atom_site_fract_x
 _atom_site_fract_y
 _atom_site_fract_z
 _atom_site_occupancy
  K  K0  1  0.24897125  0.48284450  0.23703025  1
  K  K1  1  0.24897125  0.01715550  0.23703025  1
  K  K2  1  0.75102875  0.51715550  0.76296975  1
  K  K3  1  0.75102875  0.98284450  0.76296975  1
  Li  Li4  1  0.19155775  0.75000000  0.49526075  1
  Li  Li5  1  0.80844225  0.25000000  0.50473925  1
  Mn  Mn6  1  0.73243175  0.75000000  0.12556825  1
  Mn  Mn7  1  0.26756825  0.25000000  0.87443175  1
  P  P8  1  0.78335125  0.25000000  0.07723825  1
  P  P9  1  0.21664875  0.75000000  0.92276175  1
  C  C10  1  0.74625775  0.75000000  0.43182175  1
  C  C11  1  0.25374225  0.25000000  0.56817825  1
  O  O12  1  0.15414275  0.25000000  0.44760575  1
  O  O13  1  0.84585725  0.75000000  0.55239425  1
  O  O14  1  0.50687275  0.75000000  0.40929925  1
  O  O15  1  0.49312725  0.25000000  0.59070075  1
  O  O16  1  0.90210375  0.75000000  0.33236875  1
  O  O17  1  0.09789625  0.25000000  0.66763125  1
  O  O18  1  0.36049125  0.75000000  0.06130825  1
  O  O19  1  0.63950875  0.25000000  0.93869175  1
  O  O20  1  0.06936775  0.25000000  0.04712775  1
  O  O21  1  0.93063225  0.75000000  0.95287225  1
  O  O22  1  0.72482525  0.07026150  0.15933225  1
  O  O23  1  0.72482525  0.42973850  0.15933225  1
  O  O24  1  0.27517475  0.57026150  0.84066775  1
  O  O25  1  0.27517475  0.92973850  0.84066775  1
