# generated using pymatgen
data_LiSn(PO3)4
_symmetry_space_group_name_H-M   'P 1'
_cell_length_a   7.57970908
_cell_length_b   7.59621067
_cell_length_c   10.23179269
_cell_angle_alpha   99.64522516
_cell_angle_beta   108.29874220
_cell_angle_gamma   110.47924445
_symmetry_Int_Tables_number   1
_chemical_formula_structural   LiSn(PO3)4
_chemical_formula_sum   'Li2 Sn2 P8 O24'
_cell_volume   497.84103728
_cell_formula_units_Z   2
loop_
 _symmetry_equiv_pos_site_id
 _symmetry_equiv_pos_as_xyz
  1  'x, y, z'
loop_
 _atom_site_type_symbol
 _atom_site_label
 _atom_site_symmetry_multiplicity
 _atom_site_fract_x
 _atom_site_fract_y
 _atom_site_fract_z
 _atom_site_occupancy
  Li  Li0  1  0.75472800  0.00123100  0.75219100  1
  Li  Li1  1  0.24527200  0.99876900  0.24780900  1
  Sn  Sn2  1  0.00000000  0.50000000  0.00000000  1
  Sn  Sn3  1  0.00000000  0.00000000  0.50000000  1
  P  P4  1  0.00352300  0.31714400  0.30863300  1
  P  P5  1  0.73246500  0.27389600  0.47575800  1
  P  P6  1  0.29975100  0.25635300  0.02375600  1
  P  P7  1  0.49452100  0.30741100  0.81146500  1
  P  P8  1  0.50547900  0.69258900  0.18853500  1
  P  P9  1  0.70024900  0.74364700  0.97624400  1
  P  P10  1  0.26753500  0.72610400  0.52424200  1
  P  P11  1  0.99647700  0.68285600  0.69136700  1
  O  O12  1  0.96181100  0.34190000  0.16140600  1
  O  O13  1  0.86709700  0.19793300  0.57334900  1
  O  O14  1  0.81393400  0.31464600  0.34799800  1
  O  O15  1  0.50668100  0.16382200  0.40856600  1
  O  O16  1  0.69289200  0.28765000  0.82628000  1
  O  O17  1  0.79002400  0.49620000  0.56744000  1
  O  O18  1  0.87728700  0.70929300  0.07647600  1
  O  O19  1  0.25824900  0.09835700  0.09080000  1
  O  O20  1  0.43205800  0.22461100  0.93244900  1
  O  O21  1  0.32173700  0.20474400  0.66443600  1
  O  O22  1  0.47088300  0.46684900  0.14754600  1
  O  O23  1  0.95657600  0.86195700  0.67323600  1
  O  O24  1  0.04342400  0.13804300  0.32676400  1
  O  O25  1  0.52911700  0.53315100  0.85245400  1
  O  O26  1  0.67826300  0.79525600  0.33556400  1
  O  O27  1  0.56794200  0.77538900  0.06755100  1
  O  O28  1  0.74175100  0.90164300  0.90920000  1
  O  O29  1  0.12271300  0.29070700  0.92352400  1
  O  O30  1  0.20997600  0.50380000  0.43256000  1
  O  O31  1  0.30710800  0.71235000  0.17372000  1
  O  O32  1  0.49331900  0.83617800  0.59143400  1
  O  O33  1  0.18606600  0.68535400  0.65200200  1
  O  O34  1  0.13290300  0.80206700  0.42665100  1
  O  O35  1  0.03818900  0.65810000  0.83859400  1
