# generated using pymatgen
data_Li2V2OF6
_symmetry_space_group_name_H-M   'P 1'
_cell_length_a   6.31662784
_cell_length_b   6.51318753
_cell_length_c   7.79911381
_cell_angle_alpha   101.00193496
_cell_angle_beta   111.24905719
_cell_angle_gamma   104.69750718
_symmetry_Int_Tables_number   1
_chemical_formula_structural   Li2V2OF6
_chemical_formula_sum   'Li4 V4 O2 F12'
_cell_volume   274.66616766
_cell_formula_units_Z   2
loop_
 _symmetry_equiv_pos_site_id
 _symmetry_equiv_pos_as_xyz
  1  'x, y, z'
loop_
 _atom_site_type_symbol
 _atom_site_label
 _atom_site_symmetry_multiplicity
 _atom_site_fract_x
 _atom_site_fract_y
 _atom_site_fract_z
 _atom_site_occupancy
  Li  Li0  1  0.23569400  0.63260200  0.93442600  1
  Li  Li1  1  0.83699900  0.92645300  0.16925900  1
  Li  Li2  1  0.16300100  0.07354700  0.83074100  1
  Li  Li3  1  0.76430600  0.36739800  0.06557400  1
  V  V4  1  0.27392900  0.80115200  0.42638000  1
  V  V5  1  0.66016700  0.67355500  0.72425300  1
  V  V6  1  0.33983300  0.32644500  0.27574700  1
  V  V7  1  0.72607100  0.19884800  0.57362000  1
  O  O8  1  0.62257000  0.90271200  0.61343800  1
  O  O9  1  0.37743000  0.09728800  0.38656200  1
  F  F10  1  0.18106700  0.89895400  0.62327800  1
  F  F11  1  0.93322600  0.67810500  0.22452800  1
  F  F12  1  0.32945200  0.61972100  0.20803400  1
  F  F13  1  0.55379000  0.74488400  0.92651500  1
  F  F14  1  0.01795200  0.80521500  0.89247200  1
  F  F15  1  0.29079700  0.50524100  0.49914900  1
  F  F16  1  0.70920300  0.49475900  0.50085100  1
  F  F17  1  0.98204800  0.19478500  0.10752800  1
  F  F18  1  0.44621000  0.25511600  0.07348500  1
  F  F19  1  0.67054800  0.38027900  0.79196600  1
  F  F20  1  0.06677400  0.32189500  0.77547200  1
  F  F21  1  0.81893300  0.10104600  0.37672200  1
