# generated using pymatgen
data_Mn3OF5
_symmetry_space_group_name_H-M   'P 1'
_cell_length_a   7.07651400
_cell_length_b   20.35350000
_cell_length_c   3.24586000
_cell_angle_alpha   90.00000000
_cell_angle_beta   90.00000000
_cell_angle_gamma   90.00000000
_symmetry_Int_Tables_number   1
_chemical_formula_structural   Mn3OF5
_chemical_formula_sum   'Mn12 O4 F20'
_cell_volume   467.50714826
_cell_formula_units_Z   4
loop_
 _symmetry_equiv_pos_site_id
 _symmetry_equiv_pos_as_xyz
  1  'x, y, z'
loop_
 _atom_site_type_symbol
 _atom_site_label
 _atom_site_symmetry_multiplicity
 _atom_site_fract_x
 _atom_site_fract_y
 _atom_site_fract_z
 _atom_site_occupancy
  Mn  Mn0  1  0.00000000  0.00000000  0.00000000  1
  Mn  Mn1  1  0.50000000  0.32752400  0.50000000  1
  Mn  Mn2  1  0.50000000  0.00000000  0.50000000  1
  Mn  Mn3  1  0.50000000  0.15214700  0.00000000  1
  Mn  Mn4  1  0.00000000  0.34785300  0.00000000  1
  Mn  Mn5  1  0.00000000  0.17247600  0.50000000  1
  Mn  Mn6  1  0.50000000  0.50000000  0.00000000  1
  Mn  Mn7  1  0.00000000  0.82752400  0.50000000  1
  Mn  Mn8  1  0.00000000  0.50000000  0.50000000  1
  Mn  Mn9  1  0.00000000  0.65214700  0.00000000  1
  Mn  Mn10  1  0.50000000  0.84785300  0.00000000  1
  Mn  Mn11  1  0.50000000  0.67247600  0.50000000  1
  O  O12  1  0.00000000  0.40609300  0.50000000  1
  O  O13  1  0.50000000  0.09390700  0.50000000  1
  O  O14  1  0.50000000  0.90609300  0.50000000  1
  O  O15  1  0.00000000  0.59390700  0.50000000  1
  F  F16  1  0.50000000  0.43341100  0.50000000  1
  F  F17  1  0.30798200  0.00000000  0.00000000  1
  F  F18  1  0.69574200  0.33142900  0.00000000  1
  F  F19  1  0.69201800  0.00000000  0.00000000  1
  F  F20  1  0.19574200  0.16857100  0.00000000  1
  F  F21  1  0.50000000  0.22205100  0.50000000  1
  F  F22  1  0.00000000  0.27794900  0.50000000  1
  F  F23  1  0.80425800  0.16857100  0.00000000  1
  F  F24  1  0.30425800  0.33142900  0.00000000  1
  F  F25  1  0.00000000  0.06658900  0.50000000  1
  F  F26  1  0.00000000  0.93341100  0.50000000  1
  F  F27  1  0.80798200  0.50000000  0.00000000  1
  F  F28  1  0.19574200  0.83142900  0.00000000  1
  F  F29  1  0.19201800  0.50000000  0.00000000  1
  F  F30  1  0.69574200  0.66857100  0.00000000  1
  F  F31  1  0.00000000  0.72205100  0.50000000  1
  F  F32  1  0.50000000  0.77794900  0.50000000  1
  F  F33  1  0.30425800  0.66857100  0.00000000  1
  F  F34  1  0.80425800  0.83142900  0.00000000  1
  F  F35  1  0.50000000  0.56658900  0.50000000  1
