# generated using pymatgen
data_Li7CrFe3(PO4)6
_symmetry_space_group_name_H-M   'P 1'
_cell_length_a   8.83123376
_cell_length_b   8.83123376
_cell_length_c   21.46169990
_cell_angle_alpha   90.00000000
_cell_angle_beta   90.00000000
_cell_angle_gamma   120.00000000
_symmetry_Int_Tables_number   1
_chemical_formula_structural   Li7CrFe3(PO4)6
_chemical_formula_sum   'Li21 Cr3 Fe9 P18 O72'
_cell_volume   1449.56438522
_cell_formula_units_Z   3
loop_
 _symmetry_equiv_pos_site_id
 _symmetry_equiv_pos_as_xyz
  1  'x, y, z'
loop_
 _atom_site_type_symbol
 _atom_site_label
 _atom_site_symmetry_multiplicity
 _atom_site_fract_x
 _atom_site_fract_y
 _atom_site_fract_z
 _atom_site_occupancy
  Li  Li0  1  0.63441400  0.90815900  0.07198200  1
  Li  Li1  1  0.09184100  0.72625500  0.07198200  1
  Li  Li2  1  0.27374500  0.36558600  0.07198200  1
  Li  Li3  1  0.33333333  0.66666667  0.18716867  1
  Li  Li4  1  0.45799600  0.10003300  0.29747900  1
  Li  Li5  1  0.64203700  0.54200400  0.29747900  1
  Li  Li6  1  0.89996700  0.35796300  0.29747900  1
  Li  Li7  1  0.30108067  0.24149233  0.40531533  1
  Li  Li8  1  0.75850767  0.05958833  0.40531533  1
  Li  Li9  1  0.94041167  0.69891933  0.40531533  1
  Li  Li10  1  0.00000000  0.00000000  0.52050200  1
  Li  Li11  1  0.12466267  0.43336633  0.63081233  1
  Li  Li12  1  0.30870367  0.87533733  0.63081233  1
  Li  Li13  1  0.56663367  0.69129633  0.63081233  1
  Li  Li14  1  0.96774733  0.57482567  0.73864867  1
  Li  Li15  1  0.42517433  0.39292167  0.73864867  1
  Li  Li16  1  0.60707833  0.03225267  0.73864867  1
  Li  Li17  1  0.66666667  0.33333333  0.85383533  1
  Li  Li18  1  0.79132933  0.76669967  0.96414567  1
  Li  Li19  1  0.97537033  0.20867067  0.96414567  1
  Li  Li20  1  0.23330033  0.02462967  0.96414567  1
  Cr  Cr21  1  0.33333333  0.66666667  0.52198867  1
  Cr  Cr22  1  0.00000000  0.00000000  0.85532200  1
  Cr  Cr23  1  0.66666667  0.33333333  0.18865533  1
  Fe  Fe24  1  0.33333333  0.66666667  0.01495367  1
  Fe  Fe25  1  0.33333333  0.66666667  0.81270367  1
  Fe  Fe26  1  0.33333333  0.66666667  0.31341067  1
  Fe  Fe27  1  0.00000000  0.00000000  0.34828700  1
  Fe  Fe28  1  0.00000000  0.00000000  0.14603700  1
  Fe  Fe29  1  0.00000000  0.00000000  0.64674400  1
  Fe  Fe30  1  0.66666667  0.33333333  0.68162033  1
  Fe  Fe31  1  0.66666667  0.33333333  0.47937033  1
  Fe  Fe32  1  0.66666667  0.33333333  0.98007733  1
  P  P33  1  0.37720067  0.04196733  0.08467233  1
  P  P34  1  0.66476667  0.62279933  0.08467233  1
  P  P35  1  0.95803267  0.33523333  0.08467233  1
  P  P36  1  0.70439967  0.00155433  0.24940733  1
  P  P37  1  0.99844567  0.70284533  0.24940733  1
  P  P38  1  0.29715467  0.29560033  0.24940733  1
  P  P39  1  0.04386733  0.37530067  0.41800567  1
  P  P40  1  0.33143333  0.95613267  0.41800567  1
  P  P41  1  0.62469933  0.66856667  0.41800567  1
  P  P42  1  0.37106633  0.33488767  0.58274067  1
  P  P43  1  0.66511233  0.03617867  0.58274067  1
  P  P44  1  0.96382133  0.62893367  0.58274067  1
  P  P45  1  0.71053400  0.70863400  0.75133900  1
  P  P46  1  0.99810000  0.28946600  0.75133900  1
  P  P47  1  0.29136600  0.00190000  0.75133900  1
  P  P48  1  0.03773300  0.66822100  0.91607400  1
  P  P49  1  0.33177900  0.36951200  0.91607400  1
  P  P50  1  0.63048800  0.96226700  0.91607400  1
  O  O51  1  0.18003167  0.99187033  0.08461933  1
  O  O52  1  0.14725633  0.47557867  0.47458167  1
  O  O53  1  0.37952967  0.86780733  0.08233033  1
  O  O54  1  0.36788233  0.88476267  0.35595167  1
  O  O55  1  0.81183867  0.81996833  0.08461933  1
  O  O56  1  0.48827767  0.62047033  0.08233033  1
  O  O57  1  0.51688033  0.63211767  0.35595167  1
  O  O58  1  0.13219267  0.51172233  0.08233033  1
  O  O59  1  0.80314767  0.99772733  0.19136033  1
  O  O60  1  0.67939600  0.16637900  0.25056700  1
  O  O61  1  0.11523733  0.48311967  0.35595167  1
  O  O62  1  0.00227267  0.80542033  0.19136033  1
  O  O63  1  0.32832233  0.85274367  0.47458167  1
  O  O64  1  0.55812533  0.86176267  0.97727867  1
  O  O65  1  0.00812967  0.18816133  0.08461933  1
  O  O66  1  0.52442133  0.67167767  0.47458167  1
  O  O67  1  0.52124333  0.83421767  0.24992467  1
  O  O68  1  0.13823733  0.69636267  0.97727867  1
  O  O69  1  0.16578233  0.68702567  0.24992467  1
  O  O70  1  0.83362100  0.51301700  0.25056700  1
  O  O71  1  0.30363733  0.44187467  0.97727867  1
  O  O72  1  0.19457967  0.19685233  0.19136033  1
  O  O73  1  0.31297433  0.47875667  0.24992467  1
  O  O74  1  0.48698300  0.32060400  0.25056700  1
  O  O75  1  0.84669833  0.32520367  0.41795267  1
  O  O76  1  0.81392300  0.80891200  0.80791500  1
  O  O77  1  0.04619633  0.20114067  0.41566367  1
  O  O78  1  0.03454900  0.21809600  0.68928500  1
  O  O79  1  0.47850533  0.15330167  0.41795267  1
  O  O80  1  0.15494433  0.95380367  0.41566367  1
  O  O81  1  0.18354700  0.96545100  0.68928500  1
  O  O82  1  0.79885933  0.84505567  0.41566367  1
  O  O83  1  0.46981433  0.33106067  0.52469367  1
  O  O84  1  0.34606267  0.49971233  0.58390033  1
  O  O85  1  0.78190400  0.81645300  0.68928500  1
  O  O86  1  0.66893933  0.13875367  0.52469367  1
  O  O87  1  0.99498900  0.18607700  0.80791500  1
  O  O88  1  0.22479200  0.19509600  0.31061200  1
  O  O89  1  0.67479633  0.52149467  0.41795267  1
  O  O90  1  0.19108800  0.00501100  0.80791500  1
  O  O91  1  0.18791000  0.16755100  0.58325800  1
  O  O92  1  0.80490400  0.02969600  0.31061200  1
  O  O93  1  0.83244900  0.02035900  0.58325800  1
  O  O94  1  0.50028767  0.84635033  0.58390033  1
  O  O95  1  0.97030400  0.77520800  0.31061200  1
  O  O96  1  0.86124633  0.53018567  0.52469367  1
  O  O97  1  0.97964100  0.81209000  0.58325800  1
  O  O98  1  0.15364967  0.65393733  0.58390033  1
  O  O99  1  0.51336500  0.65853700  0.75128600  1
  O  O100  1  0.48058967  0.14224533  0.14124833  1
  O  O101  1  0.71286300  0.53447400  0.74899700  1
  O  O102  1  0.70121567  0.55142933  0.02261833  1
  O  O103  1  0.14517200  0.48663500  0.75128600  1
  O  O104  1  0.82161100  0.28713700  0.74899700  1
  O  O105  1  0.85021367  0.29878433  0.02261833  1
  O  O106  1  0.46552600  0.17838900  0.74899700  1
  O  O107  1  0.13648100  0.66439400  0.85802700  1
  O  O108  1  0.01272933  0.83304567  0.91723367  1
  O  O109  1  0.44857067  0.14978633  0.02261833  1
  O  O110  1  0.33560600  0.47208700  0.85802700  1
  O  O111  1  0.66165567  0.51941033  0.14124833  1
  O  O112  1  0.89145867  0.52842933  0.64394533  1
  O  O113  1  0.34146300  0.85482800  0.75128600  1
  O  O114  1  0.85775467  0.33834433  0.14124833  1
  O  O115  1  0.85457667  0.50088433  0.91659133  1
  O  O116  1  0.47157067  0.36302933  0.64394533  1
  O  O117  1  0.49911567  0.35369233  0.91659133  1
  O  O118  1  0.16695433  0.17968367  0.91723367  1
  O  O119  1  0.63697067  0.10854133  0.64394533  1
  O  O120  1  0.52791300  0.86351900  0.85802700  1
  O  O121  1  0.64630767  0.14542333  0.91659133  1
  O  O122  1  0.82031633  0.98727067  0.91723367  1
