# generated using pymatgen
data_Li4Mn3Sn(PO4)4
_symmetry_space_group_name_H-M   'P 1'
_cell_length_a   4.84125429
_cell_length_b   6.29364100
_cell_length_c   10.85013383
_cell_angle_alpha   90.00000000
_cell_angle_beta   90.27081580
_cell_angle_gamma   90.00000000
_symmetry_Int_Tables_number   1
_chemical_formula_structural   Li4Mn3Sn(PO4)4
_chemical_formula_sum   'Li4 Mn3 Sn1 P4 O16'
_cell_volume   330.59029843
_cell_formula_units_Z   1
loop_
 _symmetry_equiv_pos_site_id
 _symmetry_equiv_pos_as_xyz
  1  'x, y, z'
loop_
 _atom_site_type_symbol
 _atom_site_label
 _atom_site_symmetry_multiplicity
 _atom_site_fract_x
 _atom_site_fract_y
 _atom_site_fract_z
 _atom_site_occupancy
  Li  Li0  1  0.99883350  0.25492650  0.99014600  1
  Li  Li1  1  0.99883350  0.74507350  0.99014600  1
  Li  Li2  1  0.50431950  0.74427250  0.51162950  1
  Li  Li3  1  0.50431950  0.25572750  0.51162950  1
  Mn  Mn4  1  0.47302450  0.00000000  0.21407900  1
  Mn  Mn5  1  0.53693700  0.50000000  0.78516800  1
  Mn  Mn6  1  0.02893150  0.00000000  0.72386850  1
  Sn  Sn7  1  0.98021300  0.50000000  0.28366600  1
  P  P8  1  0.09634900  0.50000000  0.60421600  1
  P  P9  1  0.42258250  0.50000000  0.07472450  1
  P  P10  1  0.59196650  0.00000000  0.90697300  1
  P  P11  1  0.88457250  0.00000000  0.41486300  1
  O  O12  1  0.22665750  0.50000000  0.47264800  1
  O  O13  1  0.19819750  0.00000000  0.39596800  1
  O  O14  1  0.27390100  0.00000000  0.90170100  1
  O  O15  1  0.27781300  0.50000000  0.94600600  1
  O  O16  1  0.71399650  0.00000000  0.04020800  1
  O  O17  1  0.73876900  0.50000000  0.06442800  1
  O  O18  1  0.77804900  0.50000000  0.60384950  1
  O  O19  1  0.79034750  0.00000000  0.55205200  1
  O  O20  1  0.22378150  0.30093350  0.67062800  1
  O  O21  1  0.22378150  0.69906650  0.67062800  1
  O  O22  1  0.30907600  0.29970900  0.14548450  1
  O  O23  1  0.30907600  0.70029100  0.14548450  1
  O  O24  1  0.72227400  0.80335000  0.83835050  1
  O  O25  1  0.72227400  0.19665000  0.83835050  1
  O  O26  1  0.73558700  0.80588600  0.35154150  1
  O  O27  1  0.73558700  0.19411400  0.35154150  1
