# generated using pymatgen
data_Li4Mn3(OF3)2
_symmetry_space_group_name_H-M   'P 1'
_cell_length_a   5.42361976
_cell_length_b   5.43291868
_cell_length_c   6.19279659
_cell_angle_alpha   110.09933014
_cell_angle_beta   86.44689959
_cell_angle_gamma   100.41140784
_symmetry_Int_Tables_number   1
_chemical_formula_structural   Li4Mn3(OF3)2
_chemical_formula_sum   'Li4 Mn3 O2 F6'
_cell_volume   168.54285047
_cell_formula_units_Z   1
loop_
 _symmetry_equiv_pos_site_id
 _symmetry_equiv_pos_as_xyz
  1  'x, y, z'
loop_
 _atom_site_type_symbol
 _atom_site_label
 _atom_site_symmetry_multiplicity
 _atom_site_fract_x
 _atom_site_fract_y
 _atom_site_fract_z
 _atom_site_occupancy
  Li  Li0  1  0.22680425  0.52442175  0.12728075  1
  Li  Li1  1  0.77319575  0.47557825  0.87271925  1
  Li  Li2  1  0.28130075  0.48440725  0.65487725  1
  Li  Li3  1  0.71869925  0.51559275  0.34512275  1
  Mn  Mn4  1  0.50000000  0.00000000  0.00000000  1
  Mn  Mn5  1  0.00807425  0.98274275  0.76206425  1
  Mn  Mn6  1  0.99192575  0.01725725  0.23793575  1
  O  O7  1  0.15036825  0.76513475  0.93910925  1
  O  O8  1  0.84963175  0.23486525  0.06089075  1
  F  F9  1  0.37384625  0.26297075  0.82991875  1
  F  F10  1  0.62615375  0.73702925  0.17008125  1
  F  F11  1  0.64367025  0.69394475  0.68646525  1
  F  F12  1  0.35632975  0.30605525  0.31353475  1
  F  F13  1  0.06995575  0.74699325  0.41253775  1
  F  F14  1  0.93004425  0.25300675  0.58746225  1
