# generated using pymatgen
data_WOF4
_symmetry_space_group_name_H-M   'P 1'
_cell_length_a   11.52254000
_cell_length_b   11.52254000
_cell_length_c   6.62488600
_cell_angle_alpha   90.00000000
_cell_angle_beta   90.00000000
_cell_angle_gamma   90.00000000
_symmetry_Int_Tables_number   1
_chemical_formula_structural   WOF4
_chemical_formula_sum   'W8 O8 F32'
_cell_volume   879.57901268
_cell_formula_units_Z   8
loop_
 _symmetry_equiv_pos_site_id
 _symmetry_equiv_pos_as_xyz
  1  'x, y, z'
loop_
 _atom_site_type_symbol
 _atom_site_label
 _atom_site_symmetry_multiplicity
 _atom_site_fract_x
 _atom_site_fract_y
 _atom_site_fract_z
 _atom_site_occupancy
  W  W0  1  0.04966150  0.77043400  0.01486125  1
  W  W1  1  0.72956600  0.54966150  0.48513875  1
  W  W2  1  0.27043400  0.45033850  0.48513875  1
  W  W3  1  0.95033850  0.22956600  0.01486125  1
  W  W4  1  0.54966150  0.27043400  0.51486125  1
  W  W5  1  0.22956600  0.04966150  0.98513875  1
  W  W6  1  0.77043400  0.95033850  0.98513875  1
  W  W7  1  0.45033850  0.72956600  0.51486125  1
  O  O8  1  0.91043650  0.86014300  0.00147925  1
  O  O9  1  0.36014300  0.58956350  0.49852075  1
  O  O10  1  0.63985700  0.41043650  0.49852075  1
  O  O11  1  0.08956350  0.13985700  0.00147925  1
  O  O12  1  0.41043650  0.36014300  0.50147925  1
  O  O13  1  0.86014300  0.08956350  0.99852075  1
  O  O14  1  0.13985700  0.91043650  0.99852075  1
  O  O15  1  0.58956350  0.63985700  0.50147925  1
  F  F16  1  0.04854700  0.78116150  0.29861275  1
  F  F17  1  0.05101950  0.75729900  0.73119425  1
  F  F18  1  0.81581550  0.68893700  0.47256825  1
  F  F19  1  0.18893700  0.68418450  0.02743175  1
  F  F20  1  0.96225300  0.63244750  0.03047675  1
  F  F21  1  0.13244750  0.53774700  0.46952325  1
  F  F22  1  0.74270100  0.55101950  0.76880575  1
  F  F23  1  0.71883850  0.54854700  0.20138725  1
  F  F24  1  0.28116150  0.45145300  0.20138725  1
  F  F25  1  0.25729900  0.44898050  0.76880575  1
  F  F26  1  0.86755250  0.46225300  0.46952325  1
  F  F27  1  0.03774700  0.36755250  0.03047675  1
  F  F28  1  0.81106300  0.31581550  0.02743175  1
  F  F29  1  0.18418450  0.31106300  0.47256825  1
  F  F30  1  0.94898050  0.24270100  0.73119425  1
  F  F31  1  0.95145300  0.21883850  0.29861275  1
  F  F32  1  0.54854700  0.28116150  0.79861275  1
  F  F33  1  0.55101950  0.25729900  0.23119425  1
  F  F34  1  0.31581550  0.18893700  0.97256825  1
  F  F35  1  0.68893700  0.18418450  0.52743175  1
  F  F36  1  0.46225300  0.13244750  0.53047675  1
  F  F37  1  0.63244750  0.03774700  0.96952325  1
  F  F38  1  0.24270100  0.05101950  0.26880575  1
  F  F39  1  0.21883850  0.04854700  0.70138725  1
  F  F40  1  0.78116150  0.95145300  0.70138725  1
  F  F41  1  0.75729900  0.94898050  0.26880575  1
  F  F42  1  0.36755250  0.96225300  0.96952325  1
  F  F43  1  0.53774700  0.86755250  0.53047675  1
  F  F44  1  0.31106300  0.81581550  0.52743175  1
  F  F45  1  0.68418450  0.81106300  0.97256825  1
  F  F46  1  0.44898050  0.74270100  0.23119425  1
  F  F47  1  0.45145300  0.71883850  0.79861275  1
