# generated using pymatgen
data_Mn3Cr2Sb(PO4)6
_symmetry_space_group_name_H-M   'P 1'
_cell_length_a   8.73851817
_cell_length_b   8.73851817
_cell_length_c   20.83038893
_cell_angle_alpha   90.00000000
_cell_angle_beta   90.00000000
_cell_angle_gamma   120.00000000
_symmetry_Int_Tables_number   1
_chemical_formula_structural   Mn3Cr2Sb(PO4)6
_chemical_formula_sum   'Mn9 Cr6 Sb3 P18 O72'
_cell_volume   1377.53803064
_cell_formula_units_Z   3
loop_
 _symmetry_equiv_pos_site_id
 _symmetry_equiv_pos_as_xyz
  1  'x, y, z'
loop_
 _atom_site_type_symbol
 _atom_site_label
 _atom_site_symmetry_multiplicity
 _atom_site_fract_x
 _atom_site_fract_y
 _atom_site_fract_z
 _atom_site_occupancy
  Mn  Mn0  1  0.33333333  0.66666667  0.51885967  1
  Mn  Mn1  1  0.33333333  0.66666667  0.31473167  1
  Mn  Mn2  1  0.33333333  0.66666667  0.02143067  1
  Mn  Mn3  1  0.00000000  0.00000000  0.85219300  1
  Mn  Mn4  1  0.00000000  0.00000000  0.64806500  1
  Mn  Mn5  1  0.00000000  0.00000000  0.35476400  1
  Mn  Mn6  1  0.66666667  0.33333333  0.18552633  1
  Mn  Mn7  1  0.66666667  0.33333333  0.98139833  1
  Mn  Mn8  1  0.66666667  0.33333333  0.68809733  1
  Cr  Cr9  1  0.33333333  0.66666667  0.66228367  1
  Cr  Cr10  1  0.33333333  0.66666667  0.16699467  1
  Cr  Cr11  1  0.00000000  0.00000000  0.99561700  1
  Cr  Cr12  1  0.00000000  0.00000000  0.50032800  1
  Cr  Cr13  1  0.66666667  0.33333333  0.32895033  1
  Cr  Cr14  1  0.66666667  0.33333333  0.83366133  1
  Sb  Sb15  1  0.33333333  0.66666667  0.81148267  1
  Sb  Sb16  1  0.00000000  0.00000000  0.14481600  1
  Sb  Sb17  1  0.66666667  0.33333333  0.47814933  1
  P  P18  1  0.00254267  0.30269133  0.25027433  1
  P  P19  1  0.66067433  0.03065267  0.08538267  1
  P  P20  1  0.36997833  0.33932567  0.08538267  1
  P  P21  1  0.96934733  0.63002167  0.08538267  1
  P  P22  1  0.69730867  0.69985133  0.25027433  1
  P  P23  1  0.30014867  0.99745733  0.25027433  1
  P  P24  1  0.66920933  0.63602467  0.58360767  1
  P  P25  1  0.32734100  0.36398600  0.41871600  1
  P  P26  1  0.03664500  0.67265900  0.41871600  1
  P  P27  1  0.63601400  0.96335500  0.41871600  1
  P  P28  1  0.36397533  0.03318467  0.58360767  1
  P  P29  1  0.96681533  0.33079067  0.58360767  1
  P  P30  1  0.33587600  0.96935800  0.91694100  1
  P  P31  1  0.99400767  0.69731933  0.75204933  1
  P  P32  1  0.70331167  0.00599233  0.75204933  1
  P  P33  1  0.30268067  0.29668833  0.75204933  1
  P  P34  1  0.03064200  0.36651800  0.91694100  1
  P  P35  1  0.63348200  0.66412400  0.91694100  1
  O  O36  1  0.55011133  0.87713767  0.35661767  1
  O  O37  1  0.32702633  0.44988867  0.35661767  1
  O  O38  1  0.67755800  0.51177300  0.25820500  1
  O  O39  1  0.12286233  0.67297367  0.35661767  1
  O  O40  1  0.80469667  0.79595233  0.18747933  1
  O  O41  1  0.51322833  0.67780667  0.23583767  1
  O  O42  1  0.48822700  0.16578500  0.25820500  1
  O  O43  1  0.32219333  0.83542167  0.23583767  1
  O  O44  1  0.67533167  0.13148533  0.14583533  1
  O  O45  1  0.16457833  0.48677167  0.23583767  1
  O  O46  1  0.83608167  0.00780533  0.07621833  1
  O  O47  1  0.45615367  0.32466833  0.14583533  1
  O  O48  1  0.20404767  0.00874433  0.18747933  1
  O  O49  1  0.83421500  0.32244200  0.25820500  1
  O  O50  1  0.50311400  0.83935700  0.09632600  1
  O  O51  1  0.99125567  0.19530333  0.18747933  1
  O  O52  1  0.33624300  0.49688600  0.09632600  1
  O  O53  1  0.17172367  0.16391833  0.07621833  1
  O  O54  1  0.16064300  0.66375700  0.09632600  1
  O  O55  1  0.86851467  0.54384633  0.14583533  1
  O  O56  1  0.53174733  0.65610367  0.97589467  1
  O  O57  1  0.99219467  0.82827633  0.07621833  1
  O  O58  1  0.34389633  0.87564367  0.97589467  1
  O  O59  1  0.12435633  0.46825267  0.97589467  1
  O  O60  1  0.21677800  0.21047100  0.68995100  1
  O  O61  1  0.99369300  0.78322200  0.68995100  1
  O  O62  1  0.34422467  0.84510633  0.59153833  1
  O  O63  1  0.78952900  0.00630700  0.68995100  1
  O  O64  1  0.47136333  0.12928567  0.52081267  1
  O  O65  1  0.17989500  0.01114000  0.56917100  1
  O  O66  1  0.15489367  0.49911833  0.59153833  1
  O  O67  1  0.98886000  0.16875500  0.56917100  1
  O  O68  1  0.34199833  0.46481867  0.47916867  1
  O  O69  1  0.83124500  0.82010500  0.56917100  1
  O  O70  1  0.50274833  0.34113867  0.40955167  1
  O  O71  1  0.12282033  0.65800167  0.47916867  1
  O  O72  1  0.87071433  0.34207767  0.52081267  1
  O  O73  1  0.50088167  0.65577533  0.59153833  1
  O  O74  1  0.16978067  0.17269033  0.42965933  1
  O  O75  1  0.65792233  0.52863667  0.52081267  1
  O  O76  1  0.00290967  0.83021933  0.42965933  1
  O  O77  1  0.83839033  0.49725167  0.40955167  1
  O  O78  1  0.82730967  0.99709033  0.42965933  1
  O  O79  1  0.53518133  0.87717967  0.47916867  1
  O  O80  1  0.19841400  0.98943700  0.30922800  1
  O  O81  1  0.65886133  0.16160967  0.40955167  1
  O  O82  1  0.01056300  0.20897700  0.30922800  1
  O  O83  1  0.79102300  0.80158600  0.30922800  1
  O  O84  1  0.88344467  0.54380433  0.02328433  1
  O  O85  1  0.66035967  0.11655533  0.02328433  1
  O  O86  1  0.01089133  0.17843967  0.92487167  1
  O  O87  1  0.45619567  0.33964033  0.02328433  1
  O  O88  1  0.13803000  0.46261900  0.85414600  1
  O  O89  1  0.84656167  0.34447333  0.90250433  1
  O  O90  1  0.82156033  0.83245167  0.92487167  1
  O  O91  1  0.65552667  0.50208833  0.90250433  1
  O  O92  1  0.00866500  0.79815200  0.81250200  1
  O  O93  1  0.49791167  0.15343833  0.90250433  1
  O  O94  1  0.16941500  0.67447200  0.74288500  1
  O  O95  1  0.78948700  0.99133500  0.81250200  1
  O  O96  1  0.53738100  0.67541100  0.85414600  1
  O  O97  1  0.16754833  0.98910867  0.92487167  1
  O  O98  1  0.83644733  0.50602367  0.76299267  1
  O  O99  1  0.32458900  0.86197000  0.85414600  1
  O  O100  1  0.66957633  0.16355267  0.76299267  1
  O  O101  1  0.50505700  0.83058500  0.74288500  1
  O  O102  1  0.49397633  0.33042367  0.76299267  1
  O  O103  1  0.20184800  0.21051300  0.81250200  1
  O  O104  1  0.86508067  0.32277033  0.64256133  1
  O  O105  1  0.32552800  0.49494300  0.74288500  1
  O  O106  1  0.67722967  0.54231033  0.64256133  1
  O  O107  1  0.45768967  0.13491933  0.64256133  1
