# generated using pymatgen
data_Li2CoP2O7
_symmetry_space_group_name_H-M   'P 1'
_cell_length_a   6.80434974
_cell_length_b   7.02162232
_cell_length_c   13.06648019
_cell_angle_alpha   90.00000000
_cell_angle_beta   90.00000000
_cell_angle_gamma   90.00000000
_symmetry_Int_Tables_number   1
_chemical_formula_structural   Li2CoP2O7
_chemical_formula_sum   'Li8 Co4 P8 O28'
_cell_volume   624.28472420
_cell_formula_units_Z   4
loop_
 _symmetry_equiv_pos_site_id
 _symmetry_equiv_pos_as_xyz
  1  'x, y, z'
loop_
 _atom_site_type_symbol
 _atom_site_label
 _atom_site_symmetry_multiplicity
 _atom_site_fract_x
 _atom_site_fract_y
 _atom_site_fract_z
 _atom_site_occupancy
  Li  Li0  1  0.25000000  0.75000000  0.51886375  1
  Li  Li1  1  0.75000000  0.75000000  0.48113625  1
  Li  Li2  1  0.25000000  0.25000000  0.51886375  1
  Li  Li3  1  0.75000000  0.25000000  0.48113625  1
  Li  Li4  1  0.75000000  0.25000000  0.01886375  1
  Li  Li5  1  0.25000000  0.25000000  0.98113625  1
  Li  Li6  1  0.75000000  0.75000000  0.01886375  1
  Li  Li7  1  0.25000000  0.75000000  0.98113625  1
  Co  Co8  1  0.75000000  0.25000000  0.25000000  1
  Co  Co9  1  0.75000000  0.75000000  0.25000000  1
  Co  Co10  1  0.25000000  0.75000000  0.75000000  1
  Co  Co11  1  0.25000000  0.25000000  0.75000000  1
  P  P12  1  0.43519500  0.00000000  0.36023725  1
  P  P13  1  0.06480500  0.50000000  0.36023725  1
  P  P14  1  0.93519500  0.50000000  0.63976275  1
  P  P15  1  0.56480500  0.00000000  0.63976275  1
  P  P16  1  0.93519500  0.50000000  0.86023725  1
  P  P17  1  0.56480500  0.00000000  0.86023725  1
  P  P18  1  0.43519500  0.00000000  0.13976275  1
  P  P19  1  0.06480500  0.50000000  0.13976275  1
  O  O20  1  0.67628050  0.00000000  0.75000000  1
  O  O21  1  0.32371950  0.00000000  0.25000000  1
  O  O22  1  0.22000900  0.50000000  0.44265925  1
  O  O23  1  0.27999100  0.00000000  0.44265925  1
  O  O24  1  0.72000900  0.00000000  0.55734075  1
  O  O25  1  0.77999100  0.50000000  0.55734075  1
  O  O26  1  0.06524300  0.68277525  0.63769975  1
  O  O27  1  0.43475700  0.81722475  0.63769975  1
  O  O28  1  0.56524300  0.81722475  0.36230025  1
  O  O29  1  0.93475700  0.68277525  0.36230025  1
  O  O30  1  0.06524300  0.31722475  0.63769975  1
  O  O31  1  0.43475700  0.18277525  0.63769975  1
  O  O32  1  0.93475700  0.31722475  0.36230025  1
  O  O33  1  0.56524300  0.18277525  0.36230025  1
  O  O34  1  0.17628050  0.50000000  0.25000000  1
  O  O35  1  0.82371950  0.50000000  0.75000000  1
  O  O36  1  0.72000900  0.00000000  0.94265925  1
  O  O37  1  0.77999100  0.50000000  0.94265925  1
  O  O38  1  0.22000900  0.50000000  0.05734075  1
  O  O39  1  0.27999100  0.00000000  0.05734075  1
  O  O40  1  0.56524300  0.18277525  0.13769975  1
  O  O41  1  0.93475700  0.31722475  0.13769975  1
  O  O42  1  0.06524300  0.31722475  0.86230025  1
  O  O43  1  0.43475700  0.18277525  0.86230025  1
  O  O44  1  0.56524300  0.81722475  0.13769975  1
  O  O45  1  0.93475700  0.68277525  0.13769975  1
  O  O46  1  0.43475700  0.81722475  0.86230025  1
  O  O47  1  0.06524300  0.68277525  0.86230025  1
