# generated using pymatgen
data_Mn6O11F
_symmetry_space_group_name_H-M   'P 1'
_cell_length_a   8.67221400
_cell_length_b   6.43180000
_cell_length_c   6.97798654
_cell_angle_alpha   90.00000000
_cell_angle_beta   111.48595457
_cell_angle_gamma   90.00000000
_symmetry_Int_Tables_number   1
_chemical_formula_structural   Mn6O11F
_chemical_formula_sum   'Mn12 O22 F2'
_cell_volume   362.16999631
_cell_formula_units_Z   2
loop_
 _symmetry_equiv_pos_site_id
 _symmetry_equiv_pos_as_xyz
  1  'x, y, z'
loop_
 _atom_site_type_symbol
 _atom_site_label
 _atom_site_symmetry_multiplicity
 _atom_site_fract_x
 _atom_site_fract_y
 _atom_site_fract_z
 _atom_site_occupancy
  Mn  Mn0  1  0.00000000  0.66928400  0.00000000  1
  Mn  Mn1  1  0.33302150  0.66264350  0.83276100  1
  Mn  Mn2  1  0.00000000  0.68757300  0.50000000  1
  Mn  Mn3  1  0.32554800  0.65815900  0.32492200  1
  Mn  Mn4  1  0.67445200  0.65815900  0.67507800  1
  Mn  Mn5  1  0.66697850  0.66264350  0.16723900  1
  Mn  Mn6  1  0.50000000  0.16928400  0.00000000  1
  Mn  Mn7  1  0.83302150  0.16264350  0.83276100  1
  Mn  Mn8  1  0.50000000  0.18757300  0.50000000  1
  Mn  Mn9  1  0.82554800  0.15815900  0.32492200  1
  Mn  Mn10  1  0.17445200  0.15815900  0.67507800  1
  Mn  Mn11  1  0.16697850  0.16264350  0.16723900  1
  O  O12  1  0.33466550  0.35941150  0.83445200  1
  O  O13  1  0.77005200  0.66733500  0.46532800  1
  O  O14  1  0.10085000  0.66424400  0.79405800  1
  O  O15  1  0.93410750  0.16874250  0.12941400  1
  O  O16  1  0.06589250  0.16874250  0.87058600  1
  O  O17  1  0.89915000  0.66424400  0.20594200  1
  O  O18  1  0.22994800  0.66733500  0.53467200  1
  O  O19  1  0.00000000  0.97663400  0.50000000  1
  O  O20  1  0.83532550  0.47058150  0.83530000  1
  O  O21  1  0.16467450  0.47058150  0.16470000  1
  O  O22  1  0.66533450  0.35941150  0.16554800  1
  O  O23  1  0.83466550  0.85941150  0.83445200  1
  O  O24  1  0.27005200  0.16733500  0.46532800  1
  O  O25  1  0.60085000  0.16424400  0.79405800  1
  O  O26  1  0.43410750  0.66874250  0.12941400  1
  O  O27  1  0.56589250  0.66874250  0.87058600  1
  O  O28  1  0.39915000  0.16424400  0.20594200  1
  O  O29  1  0.72994800  0.16733500  0.53467200  1
  O  O30  1  0.50000000  0.47663400  0.50000000  1
  O  O31  1  0.33532550  0.97058150  0.83530000  1
  O  O32  1  0.66467450  0.97058150  0.16470000  1
  O  O33  1  0.16533450  0.85941150  0.16554800  1
  F  F34  1  0.00000000  0.36427100  0.50000000  1
  F  F35  1  0.50000000  0.86427100  0.50000000  1
