# generated using pymatgen
data_Ti3Ni3(TeO8)2
_symmetry_space_group_name_H-M   'P 1'
_cell_length_a   10.38915000
_cell_length_b   5.90914600
_cell_length_c   9.23429384
_cell_angle_alpha   90.00000000
_cell_angle_beta   91.30491845
_cell_angle_gamma   90.00000000
_symmetry_Int_Tables_number   1
_chemical_formula_structural   Ti3Ni3(TeO8)2
_chemical_formula_sum   'Ti6 Ni6 Te4 O32'
_cell_volume   566.75554997
_cell_formula_units_Z   2
loop_
 _symmetry_equiv_pos_site_id
 _symmetry_equiv_pos_as_xyz
  1  'x, y, z'
loop_
 _atom_site_type_symbol
 _atom_site_label
 _atom_site_symmetry_multiplicity
 _atom_site_fract_x
 _atom_site_fract_y
 _atom_site_fract_z
 _atom_site_occupancy
  Ti  Ti0  1  0.58647850  0.24887450  0.20919800  1
  Ti  Ti1  1  0.58647850  0.75112550  0.20919800  1
  Ti  Ti2  1  0.65786200  0.50000000  0.71685800  1
  Ti  Ti3  1  0.08647850  0.74887450  0.20919800  1
  Ti  Ti4  1  0.08647850  0.25112550  0.20919800  1
  Ti  Ti5  1  0.15786200  0.00000000  0.71685800  1
  Ni  Ni6  1  0.82825100  0.00000000  0.20566500  1
  Ni  Ni7  1  0.91138100  0.74672000  0.70819200  1
  Ni  Ni8  1  0.91138100  0.25328000  0.70819200  1
  Ni  Ni9  1  0.32825100  0.50000000  0.20566500  1
  Ni  Ni10  1  0.41138100  0.24672000  0.70819200  1
  Ni  Ni11  1  0.41138100  0.75328000  0.70819200  1
  Te  Te12  1  0.67349600  0.00000000  0.48813100  1
  Te  Te13  1  0.83815700  0.50000000  0.98309800  1
  Te  Te14  1  0.17349600  0.50000000  0.48813100  1
  Te  Te15  1  0.33815700  0.00000000  0.98309800  1
  O  O16  1  0.59660950  0.24020150  0.60140000  1
  O  O17  1  0.52573500  0.00000000  0.34623800  1
  O  O18  1  0.64991500  0.00000000  0.10120500  1
  O  O19  1  0.50576200  0.50000000  0.29639500  1
  O  O20  1  0.99365800  0.00000000  0.80069600  1
  O  O21  1  0.59660950  0.75979850  0.60140000  1
  O  O22  1  0.73453200  0.22362100  0.34829400  1
  O  O23  1  0.73453200  0.77637900  0.34829400  1
  O  O24  1  0.68173200  0.50000000  0.10566100  1
  O  O25  1  0.83677600  0.00000000  0.59243700  1
  O  O26  1  0.75282550  0.71391850  0.84885000  1
  O  O27  1  0.75282550  0.28608150  0.84885000  1
  O  O28  1  0.83383900  0.50000000  0.61352400  1
  O  O29  1  0.91696400  0.73638300  0.09757300  1
  O  O30  1  0.97731000  0.50000000  0.83884100  1
  O  O31  1  0.91696400  0.26361700  0.09757300  1
  O  O32  1  0.09660950  0.74020150  0.60140000  1
  O  O33  1  0.02573500  0.50000000  0.34623800  1
  O  O34  1  0.14991500  0.50000000  0.10120500  1
  O  O35  1  0.00576200  0.00000000  0.29639500  1
  O  O36  1  0.49365800  0.50000000  0.80069600  1
  O  O37  1  0.09660950  0.25979850  0.60140000  1
  O  O38  1  0.23453200  0.72362100  0.34829400  1
  O  O39  1  0.23453200  0.27637900  0.34829400  1
  O  O40  1  0.18173200  0.00000000  0.10566100  1
  O  O41  1  0.33677600  0.50000000  0.59243700  1
  O  O42  1  0.25282550  0.21391850  0.84885000  1
  O  O43  1  0.25282550  0.78608150  0.84885000  1
  O  O44  1  0.33383900  0.00000000  0.61352400  1
  O  O45  1  0.41696400  0.23638300  0.09757300  1
  O  O46  1  0.47731000  0.00000000  0.83884100  1
  O  O47  1  0.41696400  0.76361700  0.09757300  1
