# generated using pymatgen
data_Sr3(CoO3)2
_symmetry_space_group_name_H-M   'P 1'
_cell_length_a   3.89145000
_cell_length_b   11.43813000
_cell_length_c   20.42275400
_cell_angle_alpha   90.00000000
_cell_angle_beta   90.00000000
_cell_angle_gamma   90.00000000
_symmetry_Int_Tables_number   1
_chemical_formula_structural   Sr3(CoO3)2
_chemical_formula_sum   'Sr18 Co12 O36'
_cell_volume   909.03538543
_cell_formula_units_Z   6
loop_
 _symmetry_equiv_pos_site_id
 _symmetry_equiv_pos_as_xyz
  1  'x, y, z'
loop_
 _atom_site_type_symbol
 _atom_site_label
 _atom_site_symmetry_multiplicity
 _atom_site_fract_x
 _atom_site_fract_y
 _atom_site_fract_z
 _atom_site_occupancy
  Sr  Sr0  1  0.50000000  0.31624500  0.00000000  1
  Sr  Sr1  1  0.50000000  0.00000000  0.00000000  1
  Sr  Sr2  1  0.50000000  0.68375500  0.00000000  1
  Sr  Sr3  1  0.50000000  0.33169200  0.81989300  1
  Sr  Sr4  1  0.50000000  0.00000000  0.81055700  1
  Sr  Sr5  1  0.50000000  0.66830800  0.81989300  1
  Sr  Sr6  1  0.00000000  0.16830800  0.68010700  1
  Sr  Sr7  1  0.00000000  0.50000000  0.68944300  1
  Sr  Sr8  1  0.00000000  0.83169200  0.68010700  1
  Sr  Sr9  1  0.00000000  0.81624500  0.50000000  1
  Sr  Sr10  1  0.00000000  0.50000000  0.50000000  1
  Sr  Sr11  1  0.00000000  0.18375500  0.50000000  1
  Sr  Sr12  1  0.00000000  0.83169200  0.31989300  1
  Sr  Sr13  1  0.00000000  0.50000000  0.31055700  1
  Sr  Sr14  1  0.00000000  0.16830800  0.31989300  1
  Sr  Sr15  1  0.50000000  0.66830800  0.18010700  1
  Sr  Sr16  1  0.50000000  0.00000000  0.18944300  1
  Sr  Sr17  1  0.50000000  0.33169200  0.18010700  1
  Co  Co18  1  0.50000000  0.00000000  0.59790000  1
  Co  Co19  1  0.50000000  0.66650200  0.59695200  1
  Co  Co20  1  0.50000000  0.33349800  0.59695200  1
  Co  Co21  1  0.00000000  0.16650200  0.90304800  1
  Co  Co22  1  0.00000000  0.50000000  0.90210000  1
  Co  Co23  1  0.00000000  0.83349800  0.90304800  1
  Co  Co24  1  0.00000000  0.50000000  0.09790000  1
  Co  Co25  1  0.00000000  0.16650200  0.09695200  1
  Co  Co26  1  0.00000000  0.83349800  0.09695200  1
  Co  Co27  1  0.50000000  0.66650200  0.40304800  1
  Co  Co28  1  0.50000000  0.00000000  0.40210000  1
  Co  Co29  1  0.50000000  0.33349800  0.40304800  1
  O  O30  1  0.50000000  0.15639000  0.58620500  1
  O  O31  1  0.00000000  0.85442600  0.00000000  1
  O  O32  1  0.00000000  0.14557400  0.00000000  1
  O  O33  1  0.50000000  0.33877600  0.69288100  1
  O  O34  1  0.50000000  0.50000000  0.91709800  1
  O  O35  1  0.50000000  0.85047500  0.90308500  1
  O  O36  1  0.50000000  0.66122400  0.69288100  1
  O  O37  1  0.50000000  0.84361000  0.58620500  1
  O  O38  1  0.50000000  0.00000000  0.69420600  1
  O  O39  1  0.50000000  0.14952500  0.90308500  1
  O  O40  1  0.00000000  0.83877600  0.80711900  1
  O  O41  1  0.00000000  0.65639000  0.91379500  1
  O  O42  1  0.00000000  0.50000000  0.80579400  1
  O  O43  1  0.00000000  0.64952500  0.59691500  1
  O  O44  1  0.00000000  0.00000000  0.58290200  1
  O  O45  1  0.00000000  0.35047500  0.59691500  1
  O  O46  1  0.00000000  0.34361000  0.91379500  1
  O  O47  1  0.00000000  0.16122400  0.80711900  1
  O  O48  1  0.00000000  0.65639000  0.08620500  1
  O  O49  1  0.50000000  0.35442600  0.50000000  1
  O  O50  1  0.50000000  0.64557400  0.50000000  1
  O  O51  1  0.00000000  0.83877600  0.19288100  1
  O  O52  1  0.00000000  0.00000000  0.41709800  1
  O  O53  1  0.00000000  0.35047500  0.40308500  1
  O  O54  1  0.00000000  0.16122400  0.19288100  1
  O  O55  1  0.00000000  0.34361000  0.08620500  1
  O  O56  1  0.00000000  0.50000000  0.19420600  1
  O  O57  1  0.00000000  0.64952500  0.40308500  1
  O  O58  1  0.50000000  0.33877600  0.30711900  1
  O  O59  1  0.50000000  0.15639000  0.41379500  1
  O  O60  1  0.50000000  0.00000000  0.30579400  1
  O  O61  1  0.50000000  0.14952500  0.09691500  1
  O  O62  1  0.50000000  0.50000000  0.08290200  1
  O  O63  1  0.50000000  0.85047500  0.09691500  1
  O  O64  1  0.50000000  0.84361000  0.41379500  1
  O  O65  1  0.50000000  0.66122400  0.30711900  1
