# generated using pymatgen
data_Cr3Sb(PO4)6
_symmetry_space_group_name_H-M   'P 1'
_cell_length_a   8.58642981
_cell_length_b   8.58642981
_cell_length_c   21.87433146
_cell_angle_alpha   90.00000000
_cell_angle_beta   90.00000000
_cell_angle_gamma   120.00000000
_symmetry_Int_Tables_number   1
_chemical_formula_structural   Cr3Sb(PO4)6
_chemical_formula_sum   'Cr9 Sb3 P18 O72'
_cell_volume   1396.65991569
_cell_formula_units_Z   3
loop_
 _symmetry_equiv_pos_site_id
 _symmetry_equiv_pos_as_xyz
  1  'x, y, z'
loop_
 _atom_site_type_symbol
 _atom_site_label
 _atom_site_symmetry_multiplicity
 _atom_site_fract_x
 _atom_site_fract_y
 _atom_site_fract_z
 _atom_site_occupancy
  Cr  Cr0  1  0.66666667  0.33333333  0.19020433  1
  Cr  Cr1  1  0.33333333  0.66666667  0.31052667  1
  Cr  Cr2  1  0.33333333  0.66666667  0.02457467  1
  Cr  Cr3  1  0.33333333  0.66666667  0.52353767  1
  Cr  Cr4  1  0.00000000  0.00000000  0.64386000  1
  Cr  Cr5  1  0.00000000  0.00000000  0.35790800  1
  Cr  Cr6  1  0.00000000  0.00000000  0.85687100  1
  Cr  Cr7  1  0.66666667  0.33333333  0.97719333  1
  Cr  Cr8  1  0.66666667  0.33333333  0.69124133  1
  Sb  Sb9  1  0.00000000  0.00000000  0.14290000  1
  Sb  Sb10  1  0.66666667  0.33333333  0.47623333  1
  Sb  Sb11  1  0.33333333  0.66666667  0.80956667  1
  P  P12  1  0.99953733  0.28746567  0.25133067  1
  P  P13  1  0.71253433  0.71207167  0.25133067  1
  P  P14  1  0.28792833  0.00046267  0.25133067  1
  P  P15  1  0.38491000  0.33578500  0.08317200  1
  P  P16  1  0.95087500  0.61509000  0.08317200  1
  P  P17  1  0.66421500  0.04912500  0.08317200  1
  P  P18  1  0.66620400  0.62079900  0.58466400  1
  P  P19  1  0.37920100  0.04540500  0.58466400  1
  P  P20  1  0.95459500  0.33379600  0.58466400  1
  P  P21  1  0.05157667  0.66911833  0.41650533  1
  P  P22  1  0.61754167  0.94842333  0.41650533  1
  P  P23  1  0.33088167  0.38245833  0.41650533  1
  P  P24  1  0.33287067  0.95413233  0.91799733  1
  P  P25  1  0.04586767  0.37873833  0.91799733  1
  P  P26  1  0.62126167  0.66712933  0.91799733  1
  P  P27  1  0.71824333  0.00245167  0.74983867  1
  P  P28  1  0.28420833  0.28175667  0.74983867  1
  P  P29  1  0.99754833  0.71579167  0.74983867  1
  O  O30  1  0.69465267  0.16271433  0.02553433  1
  O  O31  1  0.46806167  0.30534733  0.02553433  1
  O  O32  1  0.83282767  0.30820333  0.24457333  1
  O  O33  1  0.83728567  0.53193833  0.02553433  1
  O  O34  1  0.16671500  0.47530400  0.25733300  1
  O  O35  1  0.03659933  0.21041767  0.19168267  1
  O  O36  1  0.69179667  0.52462433  0.24457333  1
  O  O37  1  0.52469600  0.69141100  0.25733300  1
  O  O38  1  0.30858900  0.83328500  0.25733300  1
  O  O39  1  0.49313533  0.35976467  0.14149767  1
  O  O40  1  0.19404433  0.16394567  0.08684267  1
  O  O41  1  0.86662933  0.50686467  0.14149767  1
  O  O42  1  0.78958233  0.82618167  0.19168267  1
  O  O43  1  0.47537567  0.16717233  0.24457333  1
  O  O44  1  0.17381833  0.96340067  0.19168267  1
  O  O45  1  0.36306333  0.50153867  0.07674167  1
  O  O46  1  0.13847533  0.63693667  0.07674167  1
  O  O47  1  0.96990133  0.80595567  0.08684267  1
  O  O48  1  0.64023533  0.13337067  0.14149767  1
  O  O49  1  0.49846133  0.86152467  0.07674167  1
  O  O50  1  0.82986000  0.80038300  0.30744600  1
  O  O51  1  0.83605433  0.03009867  0.08684267  1
  O  O52  1  0.19961700  0.02947700  0.30744600  1
  O  O53  1  0.97052300  0.17014000  0.30744600  1
  O  O54  1  0.36131933  0.49604767  0.35886767  1
  O  O55  1  0.13472833  0.63868067  0.35886767  1
  O  O56  1  0.49949433  0.64153667  0.57790667  1
  O  O57  1  0.50395233  0.86527167  0.35886767  1
  O  O58  1  0.83338167  0.80863733  0.59066633  1
  O  O59  1  0.70326600  0.54375100  0.52501600  1
  O  O60  1  0.35846333  0.85795767  0.57790667  1
  O  O61  1  0.19136267  0.02474433  0.59066633  1
  O  O62  1  0.97525567  0.16661833  0.59066633  1
  O  O63  1  0.15980200  0.69309800  0.47483100  1
  O  O64  1  0.86071100  0.49727900  0.42017600  1
  O  O65  1  0.53329600  0.84019800  0.47483100  1
  O  O66  1  0.45624900  0.15951500  0.52501600  1
  O  O67  1  0.14204233  0.50050567  0.57790667  1
  O  O68  1  0.84048500  0.29673400  0.52501600  1
  O  O69  1  0.02973000  0.83487200  0.41007500  1
  O  O70  1  0.80514200  0.97027000  0.41007500  1
  O  O71  1  0.63656800  0.13928900  0.42017600  1
  O  O72  1  0.30690200  0.46670400  0.47483100  1
  O  O73  1  0.16512800  0.19485800  0.41007500  1
  O  O74  1  0.49652667  0.13371633  0.64077933  1
  O  O75  1  0.50272100  0.36343200  0.42017600  1
  O  O76  1  0.86628367  0.36281033  0.64077933  1
  O  O77  1  0.63718967  0.50347333  0.64077933  1
  O  O78  1  0.02798600  0.82938100  0.69220100  1
  O  O79  1  0.80139500  0.97201400  0.69220100  1
  O  O80  1  0.16616100  0.97487000  0.91124000  1
  O  O81  1  0.17061900  0.19860500  0.69220100  1
  O  O82  1  0.50004833  0.14197067  0.92399967  1
  O  O83  1  0.36993267  0.87708433  0.85834933  1
  O  O84  1  0.02513000  0.19129100  0.91124000  1
  O  O85  1  0.85802933  0.35807767  0.92399967  1
  O  O86  1  0.64192233  0.49995167  0.92399967  1
  O  O87  1  0.82646867  0.02643133  0.80816433  1
  O  O88  1  0.52737767  0.83061233  0.75350933  1
  O  O89  1  0.19996267  0.17353133  0.80816433  1
  O  O90  1  0.12291567  0.49284833  0.85834933  1
  O  O91  1  0.80870900  0.83383900  0.91124000  1
  O  O92  1  0.50715167  0.63006733  0.85834933  1
  O  O93  1  0.69639667  0.16820533  0.74340833  1
  O  O94  1  0.47180867  0.30360333  0.74340833  1
  O  O95  1  0.30323467  0.47262233  0.75350933  1
  O  O96  1  0.97356867  0.80003733  0.80816433  1
  O  O97  1  0.83179467  0.52819133  0.74340833  1
  O  O98  1  0.16319333  0.46704967  0.97411267  1
  O  O99  1  0.16938767  0.69676533  0.75350933  1
  O  O100  1  0.53295033  0.69614367  0.97411267  1
  O  O101  1  0.30385633  0.83680667  0.97411267  1
