# generated using pymatgen
data_Li4CuNi3O8
_symmetry_space_group_name_H-M   'P 1'
_cell_length_a   10.51575308
_cell_length_b   5.57439794
_cell_length_c   5.72596483
_cell_angle_alpha   90.00000000
_cell_angle_beta   122.20744712
_cell_angle_gamma   90.00000000
_symmetry_Int_Tables_number   1
_chemical_formula_structural   Li4CuNi3O8
_chemical_formula_sum   'Li8 Cu2 Ni6 O16'
_cell_volume   284.00173004
_cell_formula_units_Z   2
loop_
 _symmetry_equiv_pos_site_id
 _symmetry_equiv_pos_as_xyz
  1  'x, y, z'
loop_
 _atom_site_type_symbol
 _atom_site_label
 _atom_site_symmetry_multiplicity
 _atom_site_fract_x
 _atom_site_fract_y
 _atom_site_fract_z
 _atom_site_occupancy
  Li  Li0  1  0.50000000  0.00000000  0.50000000  1
  Li  Li1  1  0.50000000  0.50000000  0.50000000  1
  Li  Li2  1  0.75000000  0.25000000  0.00000000  1
  Li  Li3  1  0.75000000  0.75000000  0.00000000  1
  Li  Li4  1  0.00000000  0.50000000  0.50000000  1
  Li  Li5  1  0.00000000  0.00000000  0.50000000  1
  Li  Li6  1  0.25000000  0.75000000  0.00000000  1
  Li  Li7  1  0.25000000  0.25000000  0.00000000  1
  Cu  Cu8  1  0.50000000  0.50000000  0.00000000  1
  Cu  Cu9  1  0.00000000  0.00000000  0.00000000  1
  Ni  Ni10  1  0.75000000  0.25000000  0.50000000  1
  Ni  Ni11  1  0.75000000  0.75000000  0.50000000  1
  Ni  Ni12  1  0.00000000  0.50000000  0.00000000  1
  Ni  Ni13  1  0.25000000  0.75000000  0.50000000  1
  Ni  Ni14  1  0.25000000  0.25000000  0.50000000  1
  Ni  Ni15  1  0.50000000  0.00000000  0.00000000  1
  O  O16  1  0.72607900  0.00000000  0.69969700  1
  O  O17  1  0.77392100  0.50000000  0.30030300  1
  O  O18  1  0.75306350  0.50000000  0.73286000  1
  O  O19  1  0.74693650  0.00000000  0.26714000  1
  O  O20  1  0.50353150  0.74498350  0.22647000  1
  O  O21  1  0.50353150  0.25501650  0.22647000  1
  O  O22  1  0.99646850  0.24498350  0.77353000  1
  O  O23  1  0.99646850  0.75501650  0.77353000  1
  O  O24  1  0.22607900  0.50000000  0.69969700  1
  O  O25  1  0.27392100  0.00000000  0.30030300  1
  O  O26  1  0.25306350  0.00000000  0.73286000  1
  O  O27  1  0.24693650  0.50000000  0.26714000  1
  O  O28  1  0.00353150  0.24498350  0.22647000  1
  O  O29  1  0.00353150  0.75501650  0.22647000  1
  O  O30  1  0.49646850  0.74498350  0.77353000  1
  O  O31  1  0.49646850  0.25501650  0.77353000  1
