# generated using pymatgen
data_Mn4FeO8
_symmetry_space_group_name_H-M   'P 1'
_cell_length_a   10.34640600
_cell_length_b   5.82319600
_cell_length_c   6.09678258
_cell_angle_alpha   90.00000000
_cell_angle_beta   122.89729673
_cell_angle_gamma   90.00000000
_symmetry_Int_Tables_number   1
_chemical_formula_structural   Mn4FeO8
_chemical_formula_sum   'Mn8 Fe2 O16'
_cell_volume   308.42359291
_cell_formula_units_Z   2
loop_
 _symmetry_equiv_pos_site_id
 _symmetry_equiv_pos_as_xyz
  1  'x, y, z'
loop_
 _atom_site_type_symbol
 _atom_site_label
 _atom_site_symmetry_multiplicity
 _atom_site_fract_x
 _atom_site_fract_y
 _atom_site_fract_z
 _atom_site_occupancy
  Mn  Mn0  1  0.00000000  0.50000000  0.50000000  1
  Mn  Mn1  1  0.00000000  0.00000000  0.00000000  1
  Mn  Mn2  1  0.25000000  0.75000000  0.00000000  1
  Mn  Mn3  1  0.25000000  0.25000000  0.00000000  1
  Mn  Mn4  1  0.50000000  0.00000000  0.50000000  1
  Mn  Mn5  1  0.50000000  0.50000000  0.00000000  1
  Mn  Mn6  1  0.75000000  0.25000000  0.00000000  1
  Mn  Mn7  1  0.75000000  0.75000000  0.00000000  1
  Fe  Fe8  1  0.00000000  0.50000000  0.00000000  1
  Fe  Fe9  1  0.50000000  0.00000000  0.00000000  1
  O  O10  1  0.27242400  0.00000000  0.81011800  1
  O  O11  1  0.02593200  0.25370300  0.80278200  1
  O  O12  1  0.02593200  0.74629700  0.80278200  1
  O  O13  1  0.24579600  0.50000000  0.78462000  1
  O  O14  1  0.25420400  0.00000000  0.21538000  1
  O  O15  1  0.47406800  0.75370300  0.19721800  1
  O  O16  1  0.47406800  0.24629700  0.19721800  1
  O  O17  1  0.22757600  0.50000000  0.18988200  1
  O  O18  1  0.77242400  0.50000000  0.81011800  1
  O  O19  1  0.52593200  0.75370300  0.80278200  1
  O  O20  1  0.52593200  0.24629700  0.80278200  1
  O  O21  1  0.74579600  0.00000000  0.78462000  1
  O  O22  1  0.75420400  0.50000000  0.21538000  1
  O  O23  1  0.97406800  0.25370300  0.19721800  1
  O  O24  1  0.97406800  0.74629700  0.19721800  1
  O  O25  1  0.72757600  0.00000000  0.18988200  1
