# generated using pymatgen
data_Fe3O4
_symmetry_space_group_name_H-M   'P 1'
_cell_length_a   10.43869256
_cell_length_b   6.00711300
_cell_length_c   6.12170444
_cell_angle_alpha   90.00000000
_cell_angle_beta   125.39967066
_cell_angle_gamma   90.00000000
_symmetry_Int_Tables_number   1
_chemical_formula_structural   Fe3O4
_chemical_formula_sum   'Fe12 O16'
_cell_volume   312.90445265
_cell_formula_units_Z   4
loop_
 _symmetry_equiv_pos_site_id
 _symmetry_equiv_pos_as_xyz
  1  'x, y, z'
loop_
 _atom_site_type_symbol
 _atom_site_label
 _atom_site_symmetry_multiplicity
 _atom_site_fract_x
 _atom_site_fract_y
 _atom_site_fract_z
 _atom_site_occupancy
  Fe  Fe0  1  0.12609100  0.00000000  0.38282350  1
  Fe  Fe1  1  0.87390900  0.00000000  0.61717650  1
  Fe  Fe2  1  0.00000000  0.50000000  0.00000000  1
  Fe  Fe3  1  0.00000000  0.50000000  0.50000000  1
  Fe  Fe4  1  0.75000000  0.25000000  0.00000000  1
  Fe  Fe5  1  0.75000000  0.75000000  0.00000000  1
  Fe  Fe6  1  0.62609100  0.50000000  0.38282350  1
  Fe  Fe7  1  0.37390900  0.50000000  0.61717650  1
  Fe  Fe8  1  0.50000000  0.00000000  0.00000000  1
  Fe  Fe9  1  0.50000000  0.00000000  0.50000000  1
  Fe  Fe10  1  0.25000000  0.75000000  0.00000000  1
  Fe  Fe11  1  0.25000000  0.25000000  0.00000000  1
  O  O12  1  0.99281750  0.25954600  0.25446450  1
  O  O13  1  0.00718250  0.25954600  0.74553550  1
  O  O14  1  0.00718250  0.74045400  0.74553550  1
  O  O15  1  0.99281750  0.74045400  0.25446450  1
  O  O16  1  0.74486500  0.00000000  0.23436150  1
  O  O17  1  0.25513500  0.00000000  0.76563850  1
  O  O18  1  0.75745250  0.50000000  0.25161250  1
  O  O19  1  0.24254750  0.50000000  0.74838750  1
  O  O20  1  0.49281750  0.75954600  0.25446450  1
  O  O21  1  0.50718250  0.75954600  0.74553550  1
  O  O22  1  0.50718250  0.24045400  0.74553550  1
  O  O23  1  0.49281750  0.24045400  0.25446450  1
  O  O24  1  0.24486500  0.50000000  0.23436150  1
  O  O25  1  0.75513500  0.50000000  0.76563850  1
  O  O26  1  0.25745250  0.00000000  0.25161250  1
  O  O27  1  0.74254750  0.00000000  0.74838750  1
