# generated using pymatgen
data_LiCr2O3
_symmetry_space_group_name_H-M   'P 1'
_cell_length_a   5.28567000
_cell_length_b   8.98646000
_cell_length_c   5.27678822
_cell_angle_alpha   90.00000000
_cell_angle_beta   110.87265550
_cell_angle_gamma   90.00000000
_symmetry_Int_Tables_number   1
_chemical_formula_structural   LiCr2O3
_chemical_formula_sum   'Li4 Cr8 O12'
_cell_volume   234.19595503
_cell_formula_units_Z   4
loop_
 _symmetry_equiv_pos_site_id
 _symmetry_equiv_pos_as_xyz
  1  'x, y, z'
loop_
 _atom_site_type_symbol
 _atom_site_label
 _atom_site_symmetry_multiplicity
 _atom_site_fract_x
 _atom_site_fract_y
 _atom_site_fract_z
 _atom_site_occupancy
  Li  Li0  1  0.50000000  0.41471200  0.75000000  1
  Li  Li1  1  0.50000000  0.58528800  0.25000000  1
  Li  Li2  1  0.00000000  0.91471200  0.75000000  1
  Li  Li3  1  0.00000000  0.08528800  0.25000000  1
  Cr  Cr4  1  0.50000000  0.74602000  0.75000000  1
  Cr  Cr5  1  0.50000000  0.08598100  0.75000000  1
  Cr  Cr6  1  0.50000000  0.91401900  0.25000000  1
  Cr  Cr7  1  0.50000000  0.25398000  0.25000000  1
  Cr  Cr8  1  0.00000000  0.24602000  0.75000000  1
  Cr  Cr9  1  0.00000000  0.58598100  0.75000000  1
  Cr  Cr10  1  0.00000000  0.41401900  0.25000000  1
  Cr  Cr11  1  0.00000000  0.75398000  0.25000000  1
  O  O12  1  0.26779700  0.90958100  0.49068700  1
  O  O13  1  0.26779700  0.09041900  0.99068700  1
  O  O14  1  0.75000000  0.25000000  0.00000000  1
  O  O15  1  0.73220300  0.90958100  0.00931300  1
  O  O16  1  0.75000000  0.75000000  0.50000000  1
  O  O17  1  0.73220300  0.09041900  0.50931300  1
  O  O18  1  0.76779700  0.40958100  0.49068700  1
  O  O19  1  0.76779700  0.59041900  0.99068700  1
  O  O20  1  0.25000000  0.75000000  0.00000000  1
  O  O21  1  0.23220300  0.40958100  0.00931300  1
  O  O22  1  0.25000000  0.25000000  0.50000000  1
  O  O23  1  0.23220300  0.59041900  0.50931300  1
