# generated using pymatgen
data_Li4MnOF4
_symmetry_space_group_name_H-M   'P 1'
_cell_length_a   7.10412600
_cell_length_b   7.10412600
_cell_length_c   4.11305300
_cell_angle_alpha   90.00000000
_cell_angle_beta   90.00000000
_cell_angle_gamma   90.00000000
_symmetry_Int_Tables_number   1
_chemical_formula_structural   Li4MnOF4
_chemical_formula_sum   'Li8 Mn2 O2 F8'
_cell_volume   207.58005224
_cell_formula_units_Z   2
loop_
 _symmetry_equiv_pos_site_id
 _symmetry_equiv_pos_as_xyz
  1  'x, y, z'
loop_
 _atom_site_type_symbol
 _atom_site_label
 _atom_site_symmetry_multiplicity
 _atom_site_fract_x
 _atom_site_fract_y
 _atom_site_fract_z
 _atom_site_occupancy
  Li  Li0  1  0.03013875  0.29700825  0.50000000  1
  Li  Li1  1  0.20299175  0.53013875  0.00000000  1
  Li  Li2  1  0.79700825  0.46986125  0.00000000  1
  Li  Li3  1  0.96986125  0.70299175  0.50000000  1
  Li  Li4  1  0.53013875  0.79700825  0.00000000  1
  Li  Li5  1  0.70299175  0.03013875  0.50000000  1
  Li  Li6  1  0.29700825  0.96986125  0.50000000  1
  Li  Li7  1  0.46986125  0.20299175  0.00000000  1
  Mn  Mn8  1  0.00000000  0.00000000  0.00000000  1
  Mn  Mn9  1  0.50000000  0.50000000  0.50000000  1
  O  O10  1  0.00000000  0.00000000  0.50000000  1
  O  O11  1  0.50000000  0.50000000  0.00000000  1
  F  F12  1  0.04178925  0.30891800  0.00000000  1
  F  F13  1  0.80891800  0.45821075  0.50000000  1
  F  F14  1  0.19108200  0.54178925  0.50000000  1
  F  F15  1  0.95821075  0.69108200  0.00000000  1
  F  F16  1  0.54178925  0.80891800  0.50000000  1
  F  F17  1  0.30891800  0.95821075  0.00000000  1
  F  F18  1  0.69108200  0.04178925  0.00000000  1
  F  F19  1  0.45821075  0.19108200  0.50000000  1
