# generated using pymatgen
data_Li7FeO5F
_symmetry_space_group_name_H-M   'P 1'
_cell_length_a   5.52675977
_cell_length_b   5.52784632
_cell_length_c   10.87675631
_cell_angle_alpha   87.35062548
_cell_angle_beta   87.53618120
_cell_angle_gamma   61.50433034
_symmetry_Int_Tables_number   1
_chemical_formula_structural   Li7FeO5F
_chemical_formula_sum   'Li14 Fe2 O10 F2'
_cell_volume   291.64483472
_cell_formula_units_Z   2
loop_
 _symmetry_equiv_pos_site_id
 _symmetry_equiv_pos_as_xyz
  1  'x, y, z'
loop_
 _atom_site_type_symbol
 _atom_site_label
 _atom_site_symmetry_multiplicity
 _atom_site_fract_x
 _atom_site_fract_y
 _atom_site_fract_z
 _atom_site_occupancy
  Li  Li0  1  0.02218100  0.64052350  0.23668400  1
  Li  Li1  1  0.37423000  0.60018250  0.36665600  1
  Li  Li2  1  0.34960200  0.32897650  0.08848350  1
  Li  Li3  1  0.32850200  0.34882750  0.57062200  1
  Li  Li4  1  0.27357700  0.03863750  0.24181350  1
  Li  Li5  1  0.71873500  0.28730300  0.22574450  1
  Li  Li6  1  0.61700800  0.00348500  0.37226050  1
  Li  Li7  1  0.30814800  0.73873000  0.72841850  1
  Li  Li8  1  0.65482300  0.99689350  0.73551450  1
  Li  Li9  1  0.65147300  0.68921750  0.07068300  1
  Li  Li10  1  0.68942400  0.65057350  0.58704800  1
  Li  Li11  1  0.60971900  0.38993050  0.87053150  1
  Li  Li12  1  0.96589100  0.63676250  0.86980850  1
  Li  Li13  1  0.99440200  0.29814950  0.73865000  1
  Fe  Fe14  1  0.01284500  0.99958800  0.99766650  1
  Fe  Fe15  1  0.00507500  0.00903200  0.49739250  1
  O  O16  1  0.95760800  0.00132650  0.82942000  1
  O  O17  1  0.00217300  0.95502400  0.32934650  1
  O  O18  1  0.32707900  0.70313750  0.54040050  1
  O  O19  1  0.01433000  0.28939550  0.56689050  1
  O  O20  1  0.36887000  0.31706250  0.27487250  1
  O  O21  1  0.29394400  0.00420650  0.06938500  1
  O  O22  1  0.67687200  0.02451200  0.54781900  1
  O  O23  1  0.67699800  0.64627450  0.77352900  1
  O  O24  1  0.01943500  0.67417200  0.04542050  1
  O  O25  1  0.70726000  0.32217400  0.04369400  1
  F  F26  1  0.31578700  0.36913500  0.77734800  1
  F  F27  1  0.64991600  0.67747850  0.27700850  1
