# generated using pymatgen
data_Ti3Mn2Cu(PO4)6
_symmetry_space_group_name_H-M   'P 1'
_cell_length_a   8.65835177
_cell_length_b   8.65835177
_cell_length_c   21.12783613
_cell_angle_alpha   90.00000000
_cell_angle_beta   90.00000000
_cell_angle_gamma   120.00000000
_symmetry_Int_Tables_number   1
_chemical_formula_structural   Ti3Mn2Cu(PO4)6
_chemical_formula_sum   'Ti9 Mn6 Cu3 P18 O72'
_cell_volume   1371.69041596
_cell_formula_units_Z   3
loop_
 _symmetry_equiv_pos_site_id
 _symmetry_equiv_pos_as_xyz
  1  'x, y, z'
loop_
 _atom_site_type_symbol
 _atom_site_label
 _atom_site_symmetry_multiplicity
 _atom_site_fract_x
 _atom_site_fract_y
 _atom_site_fract_z
 _atom_site_occupancy
  Ti  Ti0  1  0.33333333  0.66666667  0.81034267  1
  Ti  Ti1  1  0.33333333  0.66666667  0.02045867  1
  Ti  Ti2  1  0.33333333  0.66666667  0.31375467  1
  Ti  Ti3  1  0.00000000  0.00000000  0.14367600  1
  Ti  Ti4  1  0.00000000  0.00000000  0.35379200  1
  Ti  Ti5  1  0.00000000  0.00000000  0.64708800  1
  Ti  Ti6  1  0.66666667  0.33333333  0.47700933  1
  Ti  Ti7  1  0.66666667  0.33333333  0.68712533  1
  Ti  Ti8  1  0.66666667  0.33333333  0.98042133  1
  Mn  Mn9  1  0.33333333  0.66666667  0.66203167  1
  Mn  Mn10  1  0.33333333  0.66666667  0.16582067  1
  Mn  Mn11  1  0.00000000  0.00000000  0.99536500  1
  Mn  Mn12  1  0.00000000  0.00000000  0.49915400  1
  Mn  Mn13  1  0.66666667  0.33333333  0.32869833  1
  Mn  Mn14  1  0.66666667  0.33333333  0.83248733  1
  Cu  Cu15  1  0.33333333  0.66666667  0.52019667  1
  Cu  Cu16  1  0.00000000  0.00000000  0.85353000  1
  Cu  Cu17  1  0.66666667  0.33333333  0.18686333  1
  P  P18  1  0.29225733  0.99800167  0.24980267  1
  P  P19  1  0.70574433  0.70774267  0.24980267  1
  P  P20  1  0.00199833  0.29425567  0.24980267  1
  P  P21  1  0.66711267  0.03906533  0.08509533  1
  P  P22  1  0.96093467  0.62804733  0.08509533  1
  P  P23  1  0.37195267  0.33288733  0.08509533  1
  P  P24  1  0.95892400  0.33133500  0.58313600  1
  P  P25  1  0.37241100  0.04107600  0.58313600  1
  P  P26  1  0.66866500  0.62758900  0.58313600  1
  P  P27  1  0.33377933  0.37239867  0.41842867  1
  P  P28  1  0.62760133  0.96138067  0.41842867  1
  P  P29  1  0.03861933  0.66622067  0.41842867  1
  P  P30  1  0.62559067  0.66466833  0.91646933  1
  P  P31  1  0.03907767  0.37440933  0.91646933  1
  P  P32  1  0.33533167  0.96092233  0.91646933  1
  P  P33  1  0.00044600  0.70573200  0.75176200  1
  P  P34  1  0.29426800  0.29471400  0.75176200  1
  P  P35  1  0.70528600  0.99955400  0.75176200  1
  O  O36  1  0.34866900  0.86039400  0.97506700  1
  O  O37  1  0.51172500  0.65133100  0.97506700  1
  O  O38  1  0.83583033  0.01848067  0.07749867  1
  O  O39  1  0.13960600  0.48827500  0.97506700  1
  O  O40  1  0.66246167  0.12635433  0.14580733  1
  O  O41  1  0.50096467  0.84642033  0.08474033  1
  O  O42  1  0.98151933  0.81734967  0.07749867  1
  O  O43  1  0.15357967  0.65454433  0.08474033  1
  O  O44  1  0.52171400  0.66639700  0.85658900  1
  O  O45  1  0.34545567  0.49903533  0.08474033  1
  O  O46  1  0.47432533  0.16421267  0.25810967  1
  O  O47  1  0.14468300  0.47828600  0.85658900  1
  O  O48  1  0.87364567  0.53610733  0.14580733  1
  O  O49  1  0.18265033  0.16416967  0.07749867  1
  O  O50  1  0.30759767  0.82654833  0.24470333  1
  O  O51  1  0.46389267  0.33753833  0.14580733  1
  O  O52  1  0.51895067  0.69240233  0.24470333  1
  O  O53  1  0.68988733  0.52567467  0.25810967  1
  O  O54  1  0.17345167  0.48104933  0.24470333  1
  O  O55  1  0.33360300  0.85531700  0.85658900  1
  O  O56  1  0.52070400  0.85468300  0.35838600  1
  O  O57  1  0.83578733  0.31011267  0.25810967  1
  O  O58  1  0.14531700  0.66602100  0.35838600  1
  O  O59  1  0.33397900  0.47929600  0.35838600  1
  O  O60  1  0.01533567  0.19372733  0.30840033  1
  O  O61  1  0.17839167  0.98466433  0.30840033  1
  O  O62  1  0.50249700  0.35181400  0.41083200  1
  O  O63  1  0.80627267  0.82160833  0.30840033  1
  O  O64  1  0.32912833  0.45968767  0.47914067  1
  O  O65  1  0.16763133  0.17975367  0.41807367  1
  O  O66  1  0.64818600  0.15068300  0.41083200  1
  O  O67  1  0.82024633  0.98787767  0.41807367  1
  O  O68  1  0.18838067  0.99973033  0.18992233  1
  O  O69  1  0.01212233  0.83236867  0.41807367  1
  O  O70  1  0.14099200  0.49754600  0.59144300  1
  O  O71  1  0.81134967  0.81161933  0.18992233  1
  O  O72  1  0.54031233  0.86944067  0.47914067  1
  O  O73  1  0.84931700  0.49750300  0.41083200  1
  O  O74  1  0.97426433  0.15988167  0.57803667  1
  O  O75  1  0.13055933  0.67087167  0.47914067  1
  O  O76  1  0.18561733  0.02573567  0.57803667  1
  O  O77  1  0.35655400  0.85900800  0.59144300  1
  O  O78  1  0.84011833  0.81438267  0.57803667  1
  O  O79  1  0.00026967  0.18865033  0.18992233  1
  O  O80  1  0.18737067  0.18801633  0.69171933  1
  O  O81  1  0.50245400  0.64344600  0.59144300  1
  O  O82  1  0.81198367  0.99935433  0.69171933  1
  O  O83  1  0.00064567  0.81262933  0.69171933  1
  O  O84  1  0.68200233  0.52706067  0.64173367  1
  O  O85  1  0.84505833  0.31799767  0.64173367  1
  O  O86  1  0.16916367  0.68514733  0.74416533  1
  O  O87  1  0.47293933  0.15494167  0.64173367  1
  O  O88  1  0.99579500  0.79302100  0.81247400  1
  O  O89  1  0.83429800  0.51308700  0.75140700  1
  O  O90  1  0.31485267  0.48401633  0.74416533  1
  O  O91  1  0.48691300  0.32121100  0.75140700  1
  O  O92  1  0.85504733  0.33306367  0.52325567  1
  O  O93  1  0.67878900  0.16570200  0.75140700  1
  O  O94  1  0.80765867  0.83087933  0.92477633  1
  O  O95  1  0.47801633  0.14495267  0.52325567  1
  O  O96  1  0.20697900  0.20277400  0.81247400  1
  O  O97  1  0.51598367  0.83083633  0.74416533  1
  O  O98  1  0.64093100  0.49321500  0.91137000  1
  O  O99  1  0.79722600  0.00420500  0.81247400  1
  O  O100  1  0.85228400  0.35906900  0.91137000  1
  O  O101  1  0.02322067  0.19234133  0.92477633  1
  O  O102  1  0.50678500  0.14771600  0.91137000  1
  O  O103  1  0.66693633  0.52198367  0.52325567  1
  O  O104  1  0.85403733  0.52134967  0.02505267  1
  O  O105  1  0.16912067  0.97677933  0.92477633  1
  O  O106  1  0.47865033  0.33268767  0.02505267  1
  O  O107  1  0.66731233  0.14596267  0.02505267  1
