# generated using pymatgen
data_Li4V7(PO4)6
_symmetry_space_group_name_H-M   'P 1'
_cell_length_a   10.74869000
_cell_length_b   14.22003800
_cell_length_c   6.70780170
_cell_angle_alpha   90.00000000
_cell_angle_beta   106.79498582
_cell_angle_gamma   90.00000000
_symmetry_Int_Tables_number   1
_chemical_formula_structural   Li4V7(PO4)6
_chemical_formula_sum   'Li8 V14 P12 O48'
_cell_volume   981.53295895
_cell_formula_units_Z   2
loop_
 _symmetry_equiv_pos_site_id
 _symmetry_equiv_pos_as_xyz
  1  'x, y, z'
loop_
 _atom_site_type_symbol
 _atom_site_label
 _atom_site_symmetry_multiplicity
 _atom_site_fract_x
 _atom_site_fract_y
 _atom_site_fract_z
 _atom_site_occupancy
  Li  Li0  1  0.00404200  0.00000000  0.49175000  1
  Li  Li1  1  0.36931900  0.00000000  0.58846000  1
  Li  Li2  1  0.56329350  0.11023250  0.49014600  1
  Li  Li3  1  0.56329350  0.88976750  0.49014600  1
  Li  Li4  1  0.50404200  0.50000000  0.49175000  1
  Li  Li5  1  0.86931900  0.50000000  0.58846000  1
  Li  Li6  1  0.06329350  0.61023250  0.49014600  1
  Li  Li7  1  0.06329350  0.38976750  0.49014600  1
  V  V8  1  0.32515500  0.31792500  0.19388500  1
  V  V9  1  0.32515500  0.68207500  0.19388500  1
  V  V10  1  0.00369200  0.00000000  0.99758300  1
  V  V11  1  0.50501250  0.82162250  0.00492300  1
  V  V12  1  0.50501250  0.17837750  0.00492300  1
  V  V13  1  0.18225450  0.18027750  0.81415000  1
  V  V14  1  0.18225450  0.81972250  0.81415000  1
  V  V15  1  0.82515500  0.81792500  0.19388500  1
  V  V16  1  0.82515500  0.18207500  0.19388500  1
  V  V17  1  0.50369200  0.50000000  0.99758300  1
  V  V18  1  0.00501250  0.32162250  0.00492300  1
  V  V19  1  0.00501250  0.67837750  0.00492300  1
  V  V20  1  0.68225450  0.68027750  0.81415000  1
  V  V21  1  0.68225450  0.31972250  0.81415000  1
  P  P22  1  0.40638000  0.31398400  0.69804000  1
  P  P23  1  0.40638000  0.68601600  0.69804000  1
  P  P24  1  0.33613100  0.00000000  0.08899400  1
  P  P25  1  0.67483500  0.00000000  0.91671700  1
  P  P26  1  0.60257900  0.68099400  0.30846600  1
  P  P27  1  0.60257900  0.31900600  0.30846600  1
  P  P28  1  0.90638000  0.81398400  0.69804000  1
  P  P29  1  0.90638000  0.18601600  0.69804000  1
  P  P30  1  0.83613100  0.50000000  0.08899400  1
  P  P31  1  0.17483500  0.50000000  0.91671700  1
  P  P32  1  0.10257900  0.18099400  0.30846600  1
  P  P33  1  0.10257900  0.81900600  0.30846600  1
  O  O34  1  0.20144700  0.84862100  0.51118200  1
  O  O35  1  0.20144700  0.15137900  0.51118200  1
  O  O36  1  0.34490200  0.71457500  0.87773500  1
  O  O37  1  0.34490200  0.28542500  0.87773500  1
  O  O38  1  0.20667500  0.00000000  0.13785200  1
  O  O39  1  0.34365100  0.08703700  0.94480300  1
  O  O40  1  0.34365100  0.91296300  0.94480300  1
  O  O41  1  0.50357400  0.60035000  0.75503500  1
  O  O42  1  0.50357400  0.39965000  0.75503500  1
  O  O43  1  0.50196250  0.22909950  0.69961500  1
  O  O44  1  0.50196250  0.77090050  0.69961500  1
  O  O45  1  0.44960300  0.00000000  0.29285000  1
  O  O46  1  0.56010700  0.00000000  0.71201200  1
  O  O47  1  0.51308650  0.76894450  0.31453100  1
  O  O48  1  0.51308650  0.23105550  0.31453100  1
  O  O49  1  0.49982600  0.59925400  0.24069000  1
  O  O50  1  0.49982600  0.40074600  0.24069000  1
  O  O51  1  0.80271000  0.00000000  0.86484400  1
  O  O52  1  0.66550150  0.71106650  0.13217600  1
  O  O53  1  0.66550150  0.28893350  0.13217600  1
  O  O54  1  0.66628350  0.08895950  0.05258100  1
  O  O55  1  0.66628350  0.91104050  0.05258100  1
  O  O56  1  0.80099900  0.83588400  0.49691500  1
  O  O57  1  0.80099900  0.16411600  0.49691500  1
  O  O58  1  0.70144700  0.34862100  0.51118200  1
  O  O59  1  0.70144700  0.65137900  0.51118200  1
  O  O60  1  0.84490200  0.21457500  0.87773500  1
  O  O61  1  0.84490200  0.78542500  0.87773500  1
  O  O62  1  0.70667500  0.50000000  0.13785200  1
  O  O63  1  0.84365100  0.58703700  0.94480300  1
  O  O64  1  0.84365100  0.41296300  0.94480300  1
  O  O65  1  0.00357400  0.10035000  0.75503500  1
  O  O66  1  0.00357400  0.89965000  0.75503500  1
  O  O67  1  0.00196250  0.72909950  0.69961500  1
  O  O68  1  0.00196250  0.27090050  0.69961500  1
  O  O69  1  0.94960300  0.50000000  0.29285000  1
  O  O70  1  0.06010700  0.50000000  0.71201200  1
  O  O71  1  0.01308650  0.26894450  0.31453100  1
  O  O72  1  0.01308650  0.73105550  0.31453100  1
  O  O73  1  0.99982600  0.09925400  0.24069000  1
  O  O74  1  0.99982600  0.90074600  0.24069000  1
  O  O75  1  0.30271000  0.50000000  0.86484400  1
  O  O76  1  0.16550150  0.21106650  0.13217600  1
  O  O77  1  0.16550150  0.78893350  0.13217600  1
  O  O78  1  0.16628350  0.58895950  0.05258100  1
  O  O79  1  0.16628350  0.41104050  0.05258100  1
  O  O80  1  0.30099900  0.33588400  0.49691500  1
  O  O81  1  0.30099900  0.66411600  0.49691500  1
