# generated using pymatgen
data_Mn5Cu(PO4)6
_symmetry_space_group_name_H-M   'P 1'
_cell_length_a   8.55766920
_cell_length_b   8.55766920
_cell_length_c   21.06594779
_cell_angle_alpha   90.00000000
_cell_angle_beta   90.00000000
_cell_angle_gamma   120.00000000
_symmetry_Int_Tables_number   1
_chemical_formula_structural   Mn5Cu(PO4)6
_chemical_formula_sum   'Mn15 Cu3 P18 O72'
_cell_volume   1336.04973238
_cell_formula_units_Z   3
loop_
 _symmetry_equiv_pos_site_id
 _symmetry_equiv_pos_as_xyz
  1  'x, y, z'
loop_
 _atom_site_type_symbol
 _atom_site_label
 _atom_site_symmetry_multiplicity
 _atom_site_fract_x
 _atom_site_fract_y
 _atom_site_fract_z
 _atom_site_occupancy
  Mn  Mn0  1  0.00000000  0.00000000  0.00267667  1
  Mn  Mn1  1  0.33333333  0.66666667  0.31022733  1
  Mn  Mn2  1  0.33333333  0.66666667  0.16681833  1
  Mn  Mn3  1  0.66666667  0.33333333  0.19027500  1
  Mn  Mn4  1  0.33333333  0.66666667  0.02294633  1
  Mn  Mn5  1  0.66666667  0.33333333  0.33601000  1
  Mn  Mn6  1  0.00000000  0.00000000  0.64356067  1
  Mn  Mn7  1  0.00000000  0.00000000  0.50015167  1
  Mn  Mn8  1  0.33333333  0.66666667  0.52360833  1
  Mn  Mn9  1  0.00000000  0.00000000  0.35627967  1
  Mn  Mn10  1  0.33333333  0.66666667  0.66934333  1
  Mn  Mn11  1  0.66666667  0.33333333  0.97689400  1
  Mn  Mn12  1  0.66666667  0.33333333  0.83348500  1
  Mn  Mn13  1  0.00000000  0.00000000  0.85694167  1
  Mn  Mn14  1  0.66666667  0.33333333  0.68961300  1
  Cu  Cu15  1  0.00000000  0.00000000  0.14462800  1
  Cu  Cu16  1  0.66666667  0.33333333  0.47796133  1
  Cu  Cu17  1  0.33333333  0.66666667  0.81129467  1
  P  P18  1  0.70990833  0.00047267  0.25001467  1
  P  P19  1  0.29056433  0.29009167  0.25001467  1
  P  P20  1  0.99952733  0.70943567  0.25001467  1
  P  P21  1  0.66668367  0.62213233  0.08263833  1
  P  P22  1  0.37786767  0.04455133  0.08263833  1
  P  P23  1  0.95544867  0.33331633  0.08263833  1
  P  P24  1  0.37657500  0.33380600  0.58334800  1
  P  P25  1  0.95723100  0.62342500  0.58334800  1
  P  P26  1  0.66619400  0.04276900  0.58334800  1
  P  P27  1  0.33335033  0.95546567  0.41597167  1
  P  P28  1  0.04453433  0.37788467  0.41597167  1
  P  P29  1  0.62211533  0.66664967  0.41597167  1
  P  P30  1  0.04324167  0.66713933  0.91668133  1
  P  P31  1  0.62389767  0.95675833  0.91668133  1
  P  P32  1  0.33286067  0.37610233  0.91668133  1
  P  P33  1  0.00001700  0.28879900  0.74930500  1
  P  P34  1  0.71120100  0.71121800  0.74930500  1
  P  P35  1  0.28878200  0.99998300  0.74930500  1
  O  O36  1  0.19987300  0.18970000  0.31142800  1
  O  O37  1  0.98982700  0.80012700  0.31142800  1
  O  O38  1  0.81030000  0.01017300  0.31142800  1
  O  O39  1  0.68725267  0.17118933  0.25555133  1
  O  O40  1  0.79356633  0.99029467  0.18820767  1
  O  O41  1  0.51562767  0.82826433  0.24742233  1
  O  O42  1  0.48393667  0.31274733  0.25555133  1
  O  O43  1  0.31263667  0.48437233  0.24742233  1
  O  O44  1  0.65653300  0.52275400  0.14426300  1
  O  O45  1  0.17173567  0.68736333  0.24742233  1
  O  O46  1  0.83557633  0.81158267  0.07676167  1
  O  O47  1  0.47724600  0.13377900  0.14426300  1
  O  O48  1  0.19672833  0.20643367  0.18820767  1
  O  O49  1  0.82881067  0.51606333  0.25555133  1
  O  O50  1  0.49303667  0.64049233  0.08716333  1
  O  O51  1  0.00970533  0.80327167  0.18820767  1
  O  O52  1  0.35950767  0.85254433  0.08716333  1
  O  O53  1  0.18841733  0.02399367  0.07676167  1
  O  O54  1  0.14745567  0.50696333  0.08716333  1
  O  O55  1  0.86622100  0.34346700  0.14426300  1
  O  O56  1  0.97600633  0.16442367  0.07676167  1
  O  O57  1  0.85532267  0.32890333  0.02180433  1
  O  O58  1  0.67109667  0.52641933  0.02180433  1
  O  O59  1  0.47358067  0.14467733  0.02180433  1
  O  O60  1  0.86653967  0.52303333  0.64476133  1
  O  O61  1  0.65649367  0.13346033  0.64476133  1
  O  O62  1  0.47696667  0.34350633  0.64476133  1
  O  O63  1  0.35391933  0.50452267  0.58888467  1
  O  O64  1  0.46023300  0.32362800  0.52154100  1
  O  O65  1  0.18229433  0.16159767  0.58075567  1
  O  O66  1  0.15060333  0.64608067  0.58888467  1
  O  O67  1  0.97930333  0.81770567  0.58075567  1
  O  O68  1  0.32319967  0.85608733  0.47759633  1
  O  O69  1  0.83840233  0.02069667  0.58075567  1
  O  O70  1  0.50224300  0.14491600  0.41009500  1
  O  O71  1  0.14391267  0.46711233  0.47759633  1
  O  O72  1  0.86339500  0.53976700  0.52154100  1
  O  O73  1  0.49547733  0.84939667  0.58888467  1
  O  O74  1  0.15970333  0.97382567  0.42049667  1
  O  O75  1  0.67637200  0.13660500  0.52154100  1
  O  O76  1  0.02617433  0.18587767  0.42049667  1
  O  O77  1  0.85508400  0.35732700  0.41009500  1
  O  O78  1  0.81412233  0.84029667  0.42049667  1
  O  O79  1  0.53288767  0.67680033  0.47759633  1
  O  O80  1  0.64267300  0.49775700  0.41009500  1
  O  O81  1  0.52198933  0.66223667  0.35513767  1
  O  O82  1  0.33776333  0.85975267  0.35513767  1
  O  O83  1  0.14024733  0.47801067  0.35513767  1
  O  O84  1  0.53320633  0.85636667  0.97809467  1
  O  O85  1  0.32316033  0.46679367  0.97809467  1
  O  O86  1  0.14363333  0.67683967  0.97809467  1
  O  O87  1  0.02058600  0.83785600  0.92221800  1
  O  O88  1  0.12689967  0.65696133  0.85487433  1
  O  O89  1  0.84896100  0.49493100  0.91408900  1
  O  O90  1  0.81727000  0.97941400  0.92221800  1
  O  O91  1  0.64597000  0.15103900  0.91408900  1
  O  O92  1  0.98986633  0.18942067  0.81092967  1
  O  O93  1  0.50506900  0.35403000  0.91408900  1
  O  O94  1  0.16890967  0.47824933  0.74342833  1
  O  O95  1  0.81057933  0.80044567  0.81092967  1
  O  O96  1  0.53006167  0.87310033  0.85487433  1
  O  O97  1  0.16214400  0.18273000  0.92221800  1
  O  O98  1  0.82637000  0.30715900  0.75383000  1
  O  O99  1  0.34303867  0.46993833  0.85487433  1
  O  O100  1  0.69284100  0.51921100  0.75383000  1
  O  O101  1  0.52175067  0.69066033  0.74342833  1
  O  O102  1  0.48078900  0.17363000  0.75383000  1
  O  O103  1  0.19955433  0.01013367  0.81092967  1
  O  O104  1  0.30933967  0.83109033  0.74342833  1
  O  O105  1  0.18865600  0.99557000  0.68847100  1
  O  O106  1  0.00443000  0.19308600  0.68847100  1
  O  O107  1  0.80691400  0.81134400  0.68847100  1
