# generated using pymatgen
data_AlCoO3
_symmetry_space_group_name_H-M   'P 1'
_cell_length_a   9.42693800
_cell_length_b   8.56346400
_cell_length_c   5.03023360
_cell_angle_alpha   90.00000000
_cell_angle_beta   100.35112853
_cell_angle_gamma   90.00000000
_symmetry_Int_Tables_number   1
_chemical_formula_structural   AlCoO3
_chemical_formula_sum   'Al8 Co8 O24'
_cell_volume   399.46803117
_cell_formula_units_Z   8
loop_
 _symmetry_equiv_pos_site_id
 _symmetry_equiv_pos_as_xyz
  1  'x, y, z'
loop_
 _atom_site_type_symbol
 _atom_site_label
 _atom_site_symmetry_multiplicity
 _atom_site_fract_x
 _atom_site_fract_y
 _atom_site_fract_z
 _atom_site_occupancy
  Al  Al0  1  0.80655900  0.40710600  0.19673400  1
  Al  Al1  1  0.80655900  0.59289400  0.69673400  1
  Al  Al2  1  0.19344100  0.40710600  0.30326600  1
  Al  Al3  1  0.19344100  0.59289400  0.80326600  1
  Al  Al4  1  0.30655900  0.90710600  0.19673400  1
  Al  Al5  1  0.30655900  0.09289400  0.69673400  1
  Al  Al6  1  0.69344100  0.90710600  0.30326600  1
  Al  Al7  1  0.69344100  0.09289400  0.80326600  1
  Co  Co8  1  0.00000000  0.08658900  0.25000000  1
  Co  Co9  1  0.00000000  0.26903100  0.75000000  1
  Co  Co10  1  0.00000000  0.73096900  0.25000000  1
  Co  Co11  1  0.00000000  0.91341100  0.75000000  1
  Co  Co12  1  0.50000000  0.58658900  0.25000000  1
  Co  Co13  1  0.50000000  0.76903100  0.75000000  1
  Co  Co14  1  0.50000000  0.23096900  0.25000000  1
  Co  Co15  1  0.50000000  0.41341100  0.75000000  1
  O  O16  1  0.61032350  0.41749950  0.11620600  1
  O  O17  1  0.89088700  0.24736500  0.39039400  1
  O  O18  1  0.61032350  0.58250050  0.61620600  1
  O  O19  1  0.86077350  0.42086250  0.88049800  1
  O  O20  1  0.86077350  0.57913750  0.38049800  1
  O  O21  1  0.10911300  0.24736500  0.10960600  1
  O  O22  1  0.89088700  0.75263500  0.89039400  1
  O  O23  1  0.13922650  0.42086250  0.61950200  1
  O  O24  1  0.13922650  0.57913750  0.11950200  1
  O  O25  1  0.38967650  0.41749950  0.38379400  1
  O  O26  1  0.10911300  0.75263500  0.60960600  1
  O  O27  1  0.38967650  0.58250050  0.88379400  1
  O  O28  1  0.11032350  0.91749950  0.11620600  1
  O  O29  1  0.39088700  0.74736500  0.39039400  1
  O  O30  1  0.11032350  0.08250050  0.61620600  1
  O  O31  1  0.36077350  0.92086250  0.88049800  1
  O  O32  1  0.36077350  0.07913750  0.38049800  1
  O  O33  1  0.60911300  0.74736500  0.10960600  1
  O  O34  1  0.39088700  0.25263500  0.89039400  1
  O  O35  1  0.63922650  0.92086250  0.61950200  1
  O  O36  1  0.63922650  0.07913750  0.11950200  1
  O  O37  1  0.88967650  0.91749950  0.38379400  1
  O  O38  1  0.60911300  0.25263500  0.60960600  1
  O  O39  1  0.88967650  0.08250050  0.88379400  1
