# generated using pymatgen
data_Fe12O13
_symmetry_space_group_name_H-M   'P 1'
_cell_length_a   11.08125146
_cell_length_b   11.08125146
_cell_length_c   7.55130573
_cell_angle_alpha   90.00000000
_cell_angle_beta   90.00000000
_cell_angle_gamma   120.00000000
_symmetry_Int_Tables_number   1
_chemical_formula_structural   Fe12O13
_chemical_formula_sum   'Fe36 O39'
_cell_volume   803.02729270
_cell_formula_units_Z   3
loop_
 _symmetry_equiv_pos_site_id
 _symmetry_equiv_pos_as_xyz
  1  'x, y, z'
loop_
 _atom_site_type_symbol
 _atom_site_label
 _atom_site_symmetry_multiplicity
 _atom_site_fract_x
 _atom_site_fract_y
 _atom_site_fract_z
 _atom_site_occupancy
  Fe  Fe0  1  0.89321300  0.26465500  0.33792300  1
  Fe  Fe1  1  0.37144200  0.10678700  0.33792300  1
  Fe  Fe2  1  0.17689133  0.04758467  0.67106167  1
  Fe  Fe3  1  0.95241533  0.12930667  0.67106167  1
  Fe  Fe4  1  0.12930667  0.17689133  0.32893833  1
  Fe  Fe5  1  0.26465500  0.37144200  0.66207700  1
  Fe  Fe6  1  0.73534500  0.62855800  0.33792300  1
  Fe  Fe7  1  0.04758467  0.87069333  0.32893833  1
  Fe  Fe8  1  0.87069333  0.82310867  0.67106167  1
  Fe  Fe9  1  0.62855800  0.89321300  0.66207700  1
  Fe  Fe10  1  0.82310867  0.95241533  0.32893833  1
  Fe  Fe11  1  0.10678700  0.73534500  0.66207700  1
  Fe  Fe12  1  0.55987967  0.59798833  0.67125633  1
  Fe  Fe13  1  0.03810867  0.44012033  0.67125633  1
  Fe  Fe14  1  0.84355800  0.38091800  0.00439500  1
  Fe  Fe15  1  0.61908200  0.46264000  0.00439500  1
  Fe  Fe16  1  0.79597333  0.51022467  0.66227167  1
  Fe  Fe17  1  0.93132167  0.70477533  0.99541033  1
  Fe  Fe18  1  0.40201167  0.96189133  0.67125633  1
  Fe  Fe19  1  0.71425133  0.20402667  0.66227167  1
  Fe  Fe20  1  0.53736000  0.15644200  0.00439500  1
  Fe  Fe21  1  0.29522467  0.22654633  0.99541033  1
  Fe  Fe22  1  0.48977533  0.28574867  0.66227167  1
  Fe  Fe23  1  0.77345367  0.06867833  0.99541033  1
  Fe  Fe24  1  0.22654633  0.93132167  0.00458967  1
  Fe  Fe25  1  0.70477533  0.77345367  0.00458967  1
  Fe  Fe26  1  0.51022467  0.71425133  0.33772833  1
  Fe  Fe27  1  0.28574867  0.79597333  0.33772833  1
  Fe  Fe28  1  0.46264000  0.84355800  0.99560500  1
  Fe  Fe29  1  0.59798833  0.03810867  0.32874367  1
  Fe  Fe30  1  0.06867833  0.29522467  0.00458967  1
  Fe  Fe31  1  0.38091800  0.53736000  0.99560500  1
  Fe  Fe32  1  0.20402667  0.48977533  0.33772833  1
  Fe  Fe33  1  0.96189133  0.55987967  0.32874367  1
  Fe  Fe34  1  0.15644200  0.61908200  0.99560500  1
  Fe  Fe35  1  0.44012033  0.40201167  0.32874367  1
  O  O36  1  0.19088667  0.05430633  0.18360333  1
  O  O37  1  0.94569367  0.13658033  0.18360333  1
  O  O38  1  0.22471833  0.91976067  0.49497167  1
  O  O39  1  0.08023933  0.30495767  0.49497167  1
  O  O40  1  0.86341967  0.80911333  0.18360333  1
  O  O41  1  0.13658033  0.19088667  0.81639667  1
  O  O42  1  0.69504233  0.77528167  0.49497167  1
  O  O43  1  0.30495767  0.22471833  0.50502833  1
  O  O44  1  0.77528167  0.08023933  0.50502833  1
  O  O45  1  0.91976067  0.69504233  0.50502833  1
  O  O46  1  0.05430633  0.86341967  0.81639667  1
  O  O47  1  0.80911333  0.94569367  0.81639667  1
  O  O48  1  0.00000000  0.00000000  0.50000000  1
  O  O49  1  0.85755333  0.38763967  0.51693667  1
  O  O50  1  0.61236033  0.46991367  0.51693667  1
  O  O51  1  0.89138500  0.25309400  0.82830500  1
  O  O52  1  0.74690600  0.63829100  0.82830500  1
  O  O53  1  0.53008633  0.14244667  0.51693667  1
  O  O54  1  0.80324700  0.52422000  0.14973000  1
  O  O55  1  0.36170900  0.10861500  0.82830500  1
  O  O56  1  0.97162433  0.55805167  0.83836167  1
  O  O57  1  0.44194833  0.41357267  0.83836167  1
  O  O58  1  0.58642733  0.02837567  0.83836167  1
  O  O59  1  0.72097300  0.19675300  0.14973000  1
  O  O60  1  0.47578000  0.27902700  0.14973000  1
  O  O61  1  0.66666667  0.33333333  0.83333333  1
  O  O62  1  0.52422000  0.72097300  0.85027000  1
  O  O63  1  0.27902700  0.80324700  0.85027000  1
  O  O64  1  0.55805167  0.58642733  0.16163833  1
  O  O65  1  0.41357267  0.97162433  0.16163833  1
  O  O66  1  0.19675300  0.47578000  0.85027000  1
  O  O67  1  0.46991367  0.85755333  0.48306333  1
  O  O68  1  0.02837567  0.44194833  0.16163833  1
  O  O69  1  0.63829100  0.89138500  0.17169500  1
  O  O70  1  0.10861500  0.74690600  0.17169500  1
  O  O71  1  0.25309400  0.36170900  0.17169500  1
  O  O72  1  0.38763967  0.53008633  0.48306333  1
  O  O73  1  0.14244667  0.61236033  0.48306333  1
  O  O74  1  0.33333333  0.66666667  0.16666667  1
