# generated using pymatgen
data_LiVOF3
_symmetry_space_group_name_H-M   'P 1'
_cell_length_a   4.50791229
_cell_length_b   4.79589900
_cell_length_c   12.63344453
_cell_angle_alpha   90.00000000
_cell_angle_beta   110.41808406
_cell_angle_gamma   90.00000000
_symmetry_Int_Tables_number   1
_chemical_formula_structural   LiVOF3
_chemical_formula_sum   'Li4 V4 O4 F12'
_cell_volume   255.96850597
_cell_formula_units_Z   4
loop_
 _symmetry_equiv_pos_site_id
 _symmetry_equiv_pos_as_xyz
  1  'x, y, z'
loop_
 _atom_site_type_symbol
 _atom_site_label
 _atom_site_symmetry_multiplicity
 _atom_site_fract_x
 _atom_site_fract_y
 _atom_site_fract_z
 _atom_site_occupancy
  Li  Li0  1  0.95134050  0.74622100  0.94339350  1
  Li  Li1  1  0.04865950  0.25377900  0.05660650  1
  Li  Li2  1  0.95134050  0.75377900  0.44339350  1
  Li  Li3  1  0.04865950  0.24622100  0.55660650  1
  V  V4  1  0.34583650  0.28018200  0.31853650  1
  V  V5  1  0.65416350  0.71981800  0.68146350  1
  V  V6  1  0.65416350  0.78018200  0.18146350  1
  V  V7  1  0.34583650  0.21981800  0.81853650  1
  O  O8  1  0.43567650  0.05672100  0.19774350  1
  O  O9  1  0.56432350  0.55672100  0.30225650  1
  O  O10  1  0.43567650  0.44327900  0.69774350  1
  O  O11  1  0.56432350  0.94327900  0.80225650  1
  F  F12  1  0.04354350  0.56497800  0.80423050  1
  F  F13  1  0.18370050  0.09112900  0.93109150  1
  F  F14  1  0.32755550  0.58384500  0.06756850  1
  F  F15  1  0.67244450  0.08384500  0.43243150  1
  F  F16  1  0.81629950  0.59112900  0.56890850  1
  F  F17  1  0.95645650  0.06497800  0.69576950  1
  F  F18  1  0.04354350  0.93502200  0.30423050  1
  F  F19  1  0.32755550  0.91615500  0.56756850  1
  F  F20  1  0.18370050  0.40887100  0.43109150  1
  F  F21  1  0.67244450  0.41615500  0.93243150  1
  F  F22  1  0.81629950  0.90887100  0.06890850  1
  F  F23  1  0.95645650  0.43502200  0.19576950  1
