# generated using pymatgen
data_Li4TiCo5O12
_symmetry_space_group_name_H-M   'P 1'
_cell_length_a   4.94343200
_cell_length_b   8.50978000
_cell_length_c   9.95047102
_cell_angle_alpha   90.00000000
_cell_angle_beta   90.34176237
_cell_angle_gamma   90.00000000
_symmetry_Int_Tables_number   1
_chemical_formula_structural   Li4TiCo5O12
_chemical_formula_sum   'Li8 Ti2 Co10 O24'
_cell_volume   418.58417956
_cell_formula_units_Z   2
loop_
 _symmetry_equiv_pos_site_id
 _symmetry_equiv_pos_as_xyz
  1  'x, y, z'
loop_
 _atom_site_type_symbol
 _atom_site_label
 _atom_site_symmetry_multiplicity
 _atom_site_fract_x
 _atom_site_fract_y
 _atom_site_fract_z
 _atom_site_occupancy
  Li  Li0  1  0.40957850  0.24772250  0.74727200  1
  Li  Li1  1  0.59042150  0.24772250  0.25272800  1
  Li  Li2  1  0.40957850  0.75227750  0.74727200  1
  Li  Li3  1  0.59042150  0.75227750  0.25272800  1
  Li  Li4  1  0.90957850  0.74772250  0.74727200  1
  Li  Li5  1  0.09042150  0.74772250  0.25272800  1
  Li  Li6  1  0.90957850  0.25227750  0.74727200  1
  Li  Li7  1  0.09042150  0.25227750  0.25272800  1
  Ti  Ti8  1  0.00000000  0.00000000  0.00000000  1
  Ti  Ti9  1  0.50000000  0.50000000  0.00000000  1
  Co  Co10  1  0.50000000  0.33516800  0.50000000  1
  Co  Co11  1  0.50000000  0.83520300  0.00000000  1
  Co  Co12  1  0.50000000  0.16479700  0.00000000  1
  Co  Co13  1  0.50000000  0.66483200  0.50000000  1
  Co  Co14  1  0.50000000  0.00000000  0.50000000  1
  Co  Co15  1  0.00000000  0.83516800  0.50000000  1
  Co  Co16  1  0.00000000  0.33520300  0.00000000  1
  Co  Co17  1  0.00000000  0.66479700  0.00000000  1
  Co  Co18  1  0.00000000  0.16483200  0.50000000  1
  Co  Co19  1  0.00000000  0.50000000  0.50000000  1
  O  O20  1  0.33177850  0.32804750  0.10714800  1
  O  O21  1  0.66822150  0.32804750  0.89285200  1
  O  O22  1  0.33517300  0.16772000  0.39885800  1
  O  O23  1  0.33517300  0.83228000  0.39885800  1
  O  O24  1  0.66482700  0.16772000  0.60114200  1
  O  O25  1  0.17357600  0.00000000  0.59694100  1
  O  O26  1  0.66482700  0.83228000  0.60114200  1
  O  O27  1  0.33177850  0.67195250  0.10714800  1
  O  O28  1  0.33855100  0.00000000  0.10320200  1
  O  O29  1  0.66822150  0.67195250  0.89285200  1
  O  O30  1  0.66144900  0.00000000  0.89679800  1
  O  O31  1  0.82642400  0.00000000  0.40305900  1
  O  O32  1  0.83177850  0.82804750  0.10714800  1
  O  O33  1  0.16822150  0.82804750  0.89285200  1
  O  O34  1  0.83517300  0.66772000  0.39885800  1
  O  O35  1  0.83517300  0.33228000  0.39885800  1
  O  O36  1  0.16482700  0.66772000  0.60114200  1
  O  O37  1  0.67357600  0.50000000  0.59694100  1
  O  O38  1  0.16482700  0.33228000  0.60114200  1
  O  O39  1  0.83177850  0.17195250  0.10714800  1
  O  O40  1  0.83855100  0.50000000  0.10320200  1
  O  O41  1  0.16822150  0.17195250  0.89285200  1
  O  O42  1  0.16144900  0.50000000  0.89679800  1
  O  O43  1  0.32642400  0.50000000  0.40305900  1
