# generated using pymatgen
data_LiFe5O3F5
_symmetry_space_group_name_H-M   'P 1'
_cell_length_a   10.85004800
_cell_length_b   6.24258200
_cell_length_c   6.37873835
_cell_angle_alpha   90.00000000
_cell_angle_beta   125.29232276
_cell_angle_gamma   90.00000000
_symmetry_Int_Tables_number   1
_chemical_formula_structural   LiFe5O3F5
_chemical_formula_sum   'Li2 Fe10 O6 F10'
_cell_volume   352.64301151
_cell_formula_units_Z   2
loop_
 _symmetry_equiv_pos_site_id
 _symmetry_equiv_pos_as_xyz
  1  'x, y, z'
loop_
 _atom_site_type_symbol
 _atom_site_label
 _atom_site_symmetry_multiplicity
 _atom_site_fract_x
 _atom_site_fract_y
 _atom_site_fract_z
 _atom_site_occupancy
  Li  Li0  1  0.38217200  0.00000000  0.12725800  1
  Li  Li1  1  0.88217200  0.50000000  0.12725800  1
  Fe  Fe2  1  0.62572050  0.76390550  0.61097500  1
  Fe  Fe3  1  0.03505000  0.00000000  0.06464800  1
  Fe  Fe4  1  0.37803900  0.00000000  0.62497600  1
  Fe  Fe5  1  0.20715200  0.50000000  0.20109100  1
  Fe  Fe6  1  0.62572050  0.23609450  0.61097500  1
  Fe  Fe7  1  0.12572050  0.26390550  0.61097500  1
  Fe  Fe8  1  0.53505000  0.50000000  0.06464800  1
  Fe  Fe9  1  0.87803900  0.50000000  0.62497600  1
  Fe  Fe10  1  0.70715200  0.00000000  0.20109100  1
  Fe  Fe11  1  0.12572050  0.73609450  0.61097500  1
  O  O12  1  0.60225000  0.00000000  0.82589500  1
  O  O13  1  0.65303700  0.50000000  0.43874200  1
  O  O14  1  0.60722400  0.00000000  0.37629100  1
  O  O15  1  0.10225000  0.50000000  0.82589500  1
  O  O16  1  0.15303700  0.00000000  0.43874200  1
  O  O17  1  0.10722400  0.50000000  0.37629100  1
  F  F18  1  0.37047050  0.75425950  0.35951600  1
  F  F19  1  0.87792000  0.25188400  0.88945200  1
  F  F20  1  0.87792000  0.74811600  0.88945200  1
  F  F21  1  0.63685600  0.50000000  0.87121800  1
  F  F22  1  0.37047050  0.24574050  0.35951600  1
  F  F23  1  0.87047050  0.25425950  0.35951600  1
  F  F24  1  0.37792000  0.75188400  0.88945200  1
  F  F25  1  0.37792000  0.24811600  0.88945200  1
  F  F26  1  0.13685600  0.00000000  0.87121800  1
  F  F27  1  0.87047050  0.74574050  0.35951600  1
