# generated using pymatgen
data_Li4Mn3V2Ni3O16
_symmetry_space_group_name_H-M   'P 1'
_cell_length_a   10.21868000
_cell_length_b   5.79558000
_cell_length_c   9.41674710
_cell_angle_alpha   90.00000000
_cell_angle_beta   91.38952772
_cell_angle_gamma   90.00000000
_symmetry_Int_Tables_number   1
_chemical_formula_structural   Li4Mn3V2Ni3O16
_chemical_formula_sum   'Li8 Mn6 V4 Ni6 O32'
_cell_volume   557.52568946
_cell_formula_units_Z   2
loop_
 _symmetry_equiv_pos_site_id
 _symmetry_equiv_pos_as_xyz
  1  'x, y, z'
loop_
 _atom_site_type_symbol
 _atom_site_label
 _atom_site_symmetry_multiplicity
 _atom_site_fract_x
 _atom_site_fract_y
 _atom_site_fract_z
 _atom_site_occupancy
  Li  Li0  1  0.66802900  0.00000000  0.90187800  1
  Li  Li1  1  0.99919600  0.00000000  0.98867900  1
  Li  Li2  1  0.50293900  0.50000000  0.49651600  1
  Li  Li3  1  0.82901300  0.50000000  0.40160800  1
  Li  Li4  1  0.16802900  0.50000000  0.90187800  1
  Li  Li5  1  0.49919600  0.50000000  0.98867900  1
  Li  Li6  1  0.00293900  0.00000000  0.49651600  1
  Li  Li7  1  0.32901300  0.00000000  0.40160800  1
  Mn  Mn8  1  0.58768800  0.24728000  0.21647500  1
  Mn  Mn9  1  0.58768800  0.75272000  0.21647500  1
  Mn  Mn10  1  0.67577500  0.50000000  0.71952300  1
  Mn  Mn11  1  0.08768800  0.74728000  0.21647500  1
  Mn  Mn12  1  0.08768800  0.25272000  0.21647500  1
  Mn  Mn13  1  0.17577500  0.00000000  0.71952300  1
  V  V14  1  0.66940300  0.00000000  0.49798400  1
  V  V15  1  0.85493200  0.50000000  0.98168800  1
  V  V16  1  0.16940300  0.50000000  0.49798400  1
  V  V17  1  0.35493200  0.00000000  0.98168800  1
  Ni  Ni18  1  0.82851900  0.00000000  0.21375000  1
  Ni  Ni19  1  0.91528550  0.74645150  0.71080700  1
  Ni  Ni20  1  0.91528550  0.25354850  0.71080700  1
  Ni  Ni21  1  0.32851900  0.50000000  0.21375000  1
  Ni  Ni22  1  0.41528550  0.24645150  0.71080700  1
  Ni  Ni23  1  0.41528550  0.75354850  0.71080700  1
  O  O24  1  0.59350850  0.24159750  0.59144600  1
  O  O25  1  0.51907200  0.00000000  0.33558600  1
  O  O26  1  0.65612800  0.00000000  0.10823700  1
  O  O27  1  0.50506400  0.50000000  0.30713000  1
  O  O28  1  0.50930900  0.50000000  0.80069500  1
  O  O29  1  0.59350850  0.75840250  0.59144600  1
  O  O30  1  0.73020150  0.22540850  0.34490900  1
  O  O31  1  0.73020150  0.77459150  0.34490900  1
  O  O32  1  0.65998500  0.50000000  0.10480100  1
  O  O33  1  0.82576000  0.00000000  0.57764100  1
  O  O34  1  0.75448350  0.71289350  0.84882900  1
  O  O35  1  0.75448350  0.28710650  0.84882900  1
  O  O36  1  0.82542300  0.50000000  0.60795000  1
  O  O37  1  0.91514800  0.73918500  0.09039900  1
  O  O38  1  0.98154900  0.50000000  0.85856600  1
  O  O39  1  0.91514800  0.26081500  0.09039900  1
  O  O40  1  0.09350850  0.74159750  0.59144600  1
  O  O41  1  0.01907200  0.50000000  0.33558600  1
  O  O42  1  0.15612800  0.50000000  0.10823700  1
  O  O43  1  0.00506400  0.00000000  0.30713000  1
  O  O44  1  0.00930900  0.00000000  0.80069500  1
  O  O45  1  0.09350850  0.25840250  0.59144600  1
  O  O46  1  0.23020150  0.72540850  0.34490900  1
  O  O47  1  0.23020150  0.27459150  0.34490900  1
  O  O48  1  0.15998500  0.00000000  0.10480100  1
  O  O49  1  0.32576000  0.50000000  0.57764100  1
  O  O50  1  0.25448350  0.21289350  0.84882900  1
  O  O51  1  0.25448350  0.78710650  0.84882900  1
  O  O52  1  0.32542300  0.00000000  0.60795000  1
  O  O53  1  0.41514800  0.23918500  0.09039900  1
  O  O54  1  0.48154900  0.00000000  0.85856600  1
  O  O55  1  0.41514800  0.76081500  0.09039900  1
