# generated using pymatgen
data_Li4CrCo3O8
_symmetry_space_group_name_H-M   'P 1'
_cell_length_a   5.88175148
_cell_length_b   5.88175148
_cell_length_c   14.45372884
_cell_angle_alpha   90.00000000
_cell_angle_beta   90.00000000
_cell_angle_gamma   120.00000000
_symmetry_Int_Tables_number   1
_chemical_formula_structural   Li4CrCo3O8
_chemical_formula_sum   'Li12 Cr3 Co9 O24'
_cell_volume   433.03587312
_cell_formula_units_Z   3
loop_
 _symmetry_equiv_pos_site_id
 _symmetry_equiv_pos_as_xyz
  1  'x, y, z'
loop_
 _atom_site_type_symbol
 _atom_site_label
 _atom_site_symmetry_multiplicity
 _atom_site_fract_x
 _atom_site_fract_y
 _atom_site_fract_z
 _atom_site_occupancy
  Li  Li0  1  0.33333333  0.66666667  0.16666667  1
  Li  Li1  1  0.33333333  0.16666667  0.16666667  1
  Li  Li2  1  0.83333333  0.66666667  0.16666667  1
  Li  Li3  1  0.83333333  0.16666667  0.16666667  1
  Li  Li4  1  1.00000000  1.00000000  0.50000000  1
  Li  Li5  1  0.00000000  0.50000000  0.50000000  1
  Li  Li6  1  0.50000000  0.00000000  0.50000000  1
  Li  Li7  1  0.50000000  0.50000000  0.50000000  1
  Li  Li8  1  0.66666667  0.33333333  0.83333333  1
  Li  Li9  1  0.66666667  0.83333333  0.83333333  1
  Li  Li10  1  0.16666667  0.33333333  0.83333333  1
  Li  Li11  1  0.16666667  0.83333333  0.83333333  1
  Cr  Cr12  1  0.00000000  0.00000000  0.00000000  1
  Cr  Cr13  1  0.66666667  0.33333333  0.33333333  1
  Cr  Cr14  1  0.33333333  0.66666667  0.66666667  1
  Co  Co15  1  0.50000000  0.00000000  0.00000000  1
  Co  Co16  1  0.50000000  0.50000000  0.00000000  1
  Co  Co17  1  0.00000000  0.50000000  0.00000000  1
  Co  Co18  1  0.16666667  0.33333333  0.33333333  1
  Co  Co19  1  0.16666667  0.83333333  0.33333333  1
  Co  Co20  1  0.66666667  0.83333333  0.33333333  1
  Co  Co21  1  0.83333333  0.66666667  0.66666667  1
  Co  Co22  1  0.83333333  0.16666667  0.66666667  1
  Co  Co23  1  0.33333333  0.16666667  0.66666667  1
  O  O24  1  0.50053900  0.49946100  0.25796200  1
  O  O25  1  0.66666667  0.33333333  0.07706033  1
  O  O26  1  0.50053900  0.00107800  0.25796200  1
  O  O27  1  0.99892200  0.49946100  0.25796200  1
  O  O28  1  0.66774467  0.83387233  0.07537133  1
  O  O29  1  0.16612767  0.33225533  0.07537133  1
  O  O30  1  0.00000000  0.00000000  0.25627300  1
  O  O31  1  0.16612767  0.83387233  0.07537133  1
  O  O32  1  0.16720567  0.83279433  0.59129533  1
  O  O33  1  0.33333333  0.66666667  0.41039367  1
  O  O34  1  0.16720567  0.33441133  0.59129533  1
  O  O35  1  0.66558867  0.83279433  0.59129533  1
  O  O36  1  0.33441133  0.16720567  0.40870467  1
  O  O37  1  0.83279433  0.66558867  0.40870467  1
  O  O38  1  0.66666667  0.33333333  0.58960633  1
  O  O39  1  0.83279433  0.16720567  0.40870467  1
  O  O40  1  0.83387233  0.16612767  0.92462867  1
  O  O41  1  0.00000000  0.00000000  0.74372700  1
  O  O42  1  0.83387233  0.66774467  0.92462867  1
  O  O43  1  0.33225533  0.16612767  0.92462867  1
  O  O44  1  0.00107800  0.50053900  0.74203800  1
  O  O45  1  0.49946100  0.99892200  0.74203800  1
  O  O46  1  0.33333333  0.66666667  0.92293967  1
  O  O47  1  0.49946100  0.50053900  0.74203800  1
