# generated using pymatgen
data_Li3V3P8O29
_symmetry_space_group_name_H-M   'P 1'
_cell_length_a   16.93637000
_cell_length_b   9.71733200
_cell_length_c   14.37435835
_cell_angle_alpha   90.00000000
_cell_angle_beta   90.64164318
_cell_angle_gamma   90.00000000
_symmetry_Int_Tables_number   1
_chemical_formula_structural   Li3V3P8O29
_chemical_formula_sum   'Li12 V12 P32 O116'
_cell_volume   2365.53080484
_cell_formula_units_Z   4
loop_
 _symmetry_equiv_pos_site_id
 _symmetry_equiv_pos_as_xyz
  1  'x, y, z'
loop_
 _atom_site_type_symbol
 _atom_site_label
 _atom_site_symmetry_multiplicity
 _atom_site_fract_x
 _atom_site_fract_y
 _atom_site_fract_z
 _atom_site_occupancy
  Li  Li0  1  0.66207600  0.56571900  0.05761300  1
  Li  Li1  1  0.66207600  0.43428100  0.55761300  1
  Li  Li2  1  0.54446300  0.22212900  0.44146700  1
  Li  Li3  1  0.54446300  0.77787100  0.94146700  1
  Li  Li4  1  0.96879900  0.95193800  0.99250200  1
  Li  Li5  1  0.96879900  0.04806200  0.49250200  1
  Li  Li6  1  0.16207600  0.06571900  0.05761300  1
  Li  Li7  1  0.16207600  0.93428100  0.55761300  1
  Li  Li8  1  0.04446300  0.72212900  0.44146700  1
  Li  Li9  1  0.04446300  0.27787100  0.94146700  1
  Li  Li10  1  0.46879900  0.45193800  0.99250200  1
  Li  Li11  1  0.46879900  0.54806200  0.49250200  1
  V  V12  1  0.78373400  0.21658800  0.24735900  1
  V  V13  1  0.71994650  0.27778350  0.75761700  1
  V  V14  1  0.78373400  0.78341200  0.74735900  1
  V  V15  1  0.71994650  0.72221650  0.25761700  1
  V  V16  1  0.99915600  0.56405200  0.24560800  1
  V  V17  1  0.99915600  0.43594800  0.74560800  1
  V  V18  1  0.28373400  0.71658800  0.24735900  1
  V  V19  1  0.21994650  0.77778350  0.75761700  1
  V  V20  1  0.28373400  0.28341200  0.74735900  1
  V  V21  1  0.21994650  0.22221650  0.25761700  1
  V  V22  1  0.49915600  0.06405200  0.24560800  1
  V  V23  1  0.49915600  0.93594800  0.74560800  1
  P  P24  1  0.95816100  0.73786900  0.83559000  1
  P  P25  1  0.89266300  0.80728700  0.34349200  1
  P  P26  1  0.95816100  0.26213100  0.33559000  1
  P  P27  1  0.83058350  0.50028550  0.13377000  1
  P  P28  1  0.83058350  0.49971450  0.63377000  1
  P  P29  1  0.89266300  0.19271300  0.84349200  1
  P  P30  1  0.84637250  0.07072950  0.66035700  1
  P  P31  1  0.65907200  0.57060600  0.84257200  1
  P  P32  1  0.84637250  0.92927050  0.16035700  1
  P  P33  1  0.65907200  0.42939400  0.34257200  1
  P  P34  1  0.61017100  0.30581100  0.16188600  1
  P  P35  1  0.66587350  0.00654150  0.36639800  1
  P  P36  1  0.66587350  0.99345850  0.86639800  1
  P  P37  1  0.54669700  0.23186100  0.65735300  1
  P  P38  1  0.61017100  0.69418900  0.66188600  1
  P  P39  1  0.54669700  0.76813900  0.15735300  1
  P  P40  1  0.45816100  0.23786900  0.83559000  1
  P  P41  1  0.39266300  0.30728700  0.34349200  1
  P  P42  1  0.45816100  0.76213100  0.33559000  1
  P  P43  1  0.33058350  0.00028550  0.13377000  1
  P  P44  1  0.33058350  0.99971450  0.63377000  1
  P  P45  1  0.39266300  0.69271300  0.84349200  1
  P  P46  1  0.34637250  0.57072950  0.66035700  1
  P  P47  1  0.15907200  0.07060600  0.84257200  1
  P  P48  1  0.34637250  0.42927050  0.16035700  1
  P  P49  1  0.15907200  0.92939400  0.34257200  1
  P  P50  1  0.11017100  0.80581100  0.16188600  1
  P  P51  1  0.16587350  0.50654150  0.36639800  1
  P  P52  1  0.16587350  0.49345850  0.86639800  1
  P  P53  1  0.04669700  0.73186100  0.65735300  1
  P  P54  1  0.11017100  0.19418900  0.66188600  1
  P  P55  1  0.04669700  0.26813900  0.15735300  1
  O  O56  1  0.51218700  0.27020700  0.56545600  1
  O  O57  1  0.95918800  0.69644500  0.33624400  1
  O  O58  1  0.89009850  0.89403350  0.07577100  1
  O  O59  1  0.87064100  0.78562600  0.82750500  1
  O  O60  1  0.96115450  0.57887450  0.82431300  1
  O  O61  1  0.90674600  0.57194300  0.17815500  1
  O  O62  1  0.96115450  0.42112550  0.32431300  1
  O  O63  1  0.51218700  0.72979300  0.06545600  1
  O  O64  1  0.95918800  0.30355500  0.83624400  1
  O  O65  1  0.83283350  0.64750150  0.67759700  1
  O  O66  1  0.81112950  0.73100350  0.33181100  1
  O  O67  1  0.90674600  0.42805700  0.67815500  1
  O  O68  1  0.82776350  0.50146250  0.03073600  1
  O  O69  1  0.82776350  0.49853750  0.53073600  1
  O  O70  1  0.83283350  0.35249850  0.17759700  1
  O  O71  1  0.73708350  0.64736550  0.82604000  1
  O  O72  1  0.75751400  0.57375900  0.17817800  1
  O  O73  1  0.87064100  0.21437400  0.32750500  1
  O  O74  1  0.90081250  0.10214550  0.75053000  1
  O  O75  1  0.89009850  0.10596650  0.57577100  1
  O  O76  1  0.90421450  0.10498550  0.92648000  1
  O  O77  1  0.81112950  0.26899650  0.83181100  1
  O  O78  1  0.75751400  0.42624100  0.67817800  1
  O  O79  1  0.82597950  0.08482150  0.16865700  1
  O  O80  1  0.73708350  0.35263450  0.32604000  1
  O  O81  1  0.67418250  0.58675150  0.33454200  1
  O  O82  1  0.90081250  0.89785450  0.25053000  1
  O  O83  1  0.90421450  0.89501450  0.42648000  1
  O  O84  1  0.60121450  0.59728950  0.58231700  1
  O  O85  1  0.82597950  0.91517850  0.66865700  1
  O  O86  1  0.76851450  0.15242850  0.67676300  1
  O  O87  1  0.67418250  0.41324850  0.83454200  1
  O  O88  1  0.73807350  0.07722150  0.31905700  1
  O  O89  1  0.69037500  0.23067400  0.17008100  1
  O  O90  1  0.60121450  0.40271050  0.08231700  1
  O  O91  1  0.61933750  0.39014850  0.43172000  1
  O  O92  1  0.59989750  0.39175850  0.25839700  1
  O  O93  1  0.63245200  0.28803200  0.66706400  1
  O  O94  1  0.73807350  0.92277850  0.81905700  1
  O  O95  1  0.76851450  0.84757150  0.17676300  1
  O  O96  1  0.66669650  0.14407050  0.82208200  1
  O  O97  1  0.66537750  0.99074650  0.96935000  1
  O  O98  1  0.66537750  0.00925350  0.46935000  1
  O  O99  1  0.59072400  0.08138800  0.32536800  1
  O  O100  1  0.69037500  0.76932600  0.67008100  1
  O  O101  1  0.66669650  0.85592950  0.32208200  1
  O  O102  1  0.54194700  0.19866200  0.16691300  1
  O  O103  1  0.99847650  0.79786350  0.74139400  1
  O  O104  1  0.99761750  0.79675350  0.91862300  1
  O  O105  1  0.54656250  0.07304350  0.67515200  1
  O  O106  1  0.59072400  0.91861200  0.82536800  1
  O  O107  1  0.54656250  0.92695650  0.17515200  1
  O  O108  1  0.63245200  0.71196800  0.16706400  1
  O  O109  1  0.61933750  0.60985150  0.93172000  1
  O  O110  1  0.59989750  0.60824150  0.75839700  1
  O  O111  1  0.54194700  0.80133800  0.66691300  1
  O  O112  1  0.99761750  0.20324650  0.41862300  1
  O  O113  1  0.99847650  0.20213650  0.24139400  1
  O  O114  1  0.01218700  0.77020700  0.56545600  1
  O  O115  1  0.45918800  0.19644500  0.33624400  1
  O  O116  1  0.39009850  0.39403350  0.07577100  1
  O  O117  1  0.37064100  0.28562600  0.82750500  1
  O  O118  1  0.46115450  0.07887450  0.82431300  1
  O  O119  1  0.40674600  0.07194300  0.17815500  1
  O  O120  1  0.46115450  0.92112550  0.32431300  1
  O  O121  1  0.01218700  0.22979300  0.06545600  1
  O  O122  1  0.45918800  0.80355500  0.83624400  1
  O  O123  1  0.33283350  0.14750150  0.67759700  1
  O  O124  1  0.31112950  0.23100350  0.33181100  1
  O  O125  1  0.40674600  0.92805700  0.67815500  1
  O  O126  1  0.32776350  0.00146250  0.03073600  1
  O  O127  1  0.32776350  0.99853750  0.53073600  1
  O  O128  1  0.33283350  0.85249850  0.17759700  1
  O  O129  1  0.23708350  0.14736550  0.82604000  1
  O  O130  1  0.25751400  0.07375900  0.17817800  1
  O  O131  1  0.37064100  0.71437400  0.32750500  1
  O  O132  1  0.40081250  0.60214550  0.75053000  1
  O  O133  1  0.39009850  0.60596650  0.57577100  1
  O  O134  1  0.40421450  0.60498550  0.92648000  1
  O  O135  1  0.31112950  0.76899650  0.83181100  1
  O  O136  1  0.25751400  0.92624100  0.67817800  1
  O  O137  1  0.32597950  0.58482150  0.16865700  1
  O  O138  1  0.23708350  0.85263450  0.32604000  1
  O  O139  1  0.17418250  0.08675150  0.33454200  1
  O  O140  1  0.40081250  0.39785450  0.25053000  1
  O  O141  1  0.40421450  0.39501450  0.42648000  1
  O  O142  1  0.10121450  0.09728950  0.58231700  1
  O  O143  1  0.32597950  0.41517850  0.66865700  1
  O  O144  1  0.26851450  0.65242850  0.67676300  1
  O  O145  1  0.17418250  0.91324850  0.83454200  1
  O  O146  1  0.23807350  0.57722150  0.31905700  1
  O  O147  1  0.19037500  0.73067400  0.17008100  1
  O  O148  1  0.10121450  0.90271050  0.08231700  1
  O  O149  1  0.11933750  0.89014850  0.43172000  1
  O  O150  1  0.09989750  0.89175850  0.25839700  1
  O  O151  1  0.13245200  0.78803200  0.66706400  1
  O  O152  1  0.23807350  0.42277850  0.81905700  1
  O  O153  1  0.26851450  0.34757150  0.17676300  1
  O  O154  1  0.16669650  0.64407050  0.82208200  1
  O  O155  1  0.16537750  0.49074650  0.96935000  1
  O  O156  1  0.16537750  0.50925350  0.46935000  1
  O  O157  1  0.09072400  0.58138800  0.32536800  1
  O  O158  1  0.19037500  0.26932600  0.67008100  1
  O  O159  1  0.16669650  0.35592950  0.32208200  1
  O  O160  1  0.04194700  0.69866200  0.16691300  1
  O  O161  1  0.49847650  0.29786350  0.74139400  1
  O  O162  1  0.49761750  0.29675350  0.91862300  1
  O  O163  1  0.04656250  0.57304350  0.67515200  1
  O  O164  1  0.09072400  0.41861200  0.82536800  1
  O  O165  1  0.04656250  0.42695650  0.17515200  1
  O  O166  1  0.13245200  0.21196800  0.16706400  1
  O  O167  1  0.11933750  0.10985150  0.93172000  1
  O  O168  1  0.09989750  0.10824150  0.75839700  1
  O  O169  1  0.04194700  0.30133800  0.66691300  1
  O  O170  1  0.49761750  0.70324650  0.41862300  1
  O  O171  1  0.49847650  0.70213650  0.24139400  1
