# generated using pymatgen
data_Na5Fe2P2(CO7)2
_symmetry_space_group_name_H-M   'P 1'
_cell_length_a   5.27275991
_cell_length_b   6.62254132
_cell_length_c   8.99452067
_cell_angle_alpha   88.04933799
_cell_angle_beta   89.16464163
_cell_angle_gamma   89.70059490
_symmetry_Int_Tables_number   1
_chemical_formula_structural   Na5Fe2P2(CO7)2
_chemical_formula_sum   'Na5 Fe2 P2 C2 O14'
_cell_volume   313.86141648
_cell_formula_units_Z   1
loop_
 _symmetry_equiv_pos_site_id
 _symmetry_equiv_pos_as_xyz
  1  'x, y, z'
loop_
 _atom_site_type_symbol
 _atom_site_label
 _atom_site_symmetry_multiplicity
 _atom_site_fract_x
 _atom_site_fract_y
 _atom_site_fract_z
 _atom_site_occupancy
  Na  Na0  1  0.76846500  0.23446200  0.08717800  1
  Na  Na1  1  0.24296400  0.48638200  0.26658200  1
  Na  Na2  1  0.74839500  0.48893400  0.74156500  1
  Na  Na3  1  0.74834100  0.99493900  0.73621000  1
  Na  Na4  1  0.24370100  0.76333700  0.92515800  1
  Fe  Fe5  1  0.78235400  0.76770700  0.34528700  1
  Fe  Fe6  1  0.22405500  0.24513000  0.64786100  1
  P  P7  1  0.70504000  0.25785400  0.41754500  1
  P  P8  1  0.28147400  0.74570100  0.57822600  1
  C  C9  1  0.73034600  0.74682400  0.06455300  1
  C  C10  1  0.27794500  0.25270400  0.93777900  1
  O  O11  1  0.30497200  0.28899800  0.07454000  1
  O  O12  1  0.95340500  0.75766600  0.12521200  1
  O  O13  1  0.53649500  0.74959500  0.15596900  1
  O  O14  1  0.77086500  0.06654700  0.32574700  1
  O  O15  1  0.79047500  0.44450500  0.31715900  1
  O  O16  1  0.12148200  0.74059900  0.43563200  1
  O  O17  1  0.41694800  0.27189300  0.44604100  1
  O  O18  1  0.57175900  0.74795600  0.53322400  1
  O  O19  1  0.84634300  0.25060500  0.56698500  1
  O  O20  1  0.23137500  0.55958700  0.68372300  1
  O  O21  1  0.21921000  0.93034800  0.67346200  1
  O  O22  1  0.47689500  0.23193100  0.84910400  1
  O  O23  1  0.05230700  0.23529200  0.87913000  1
  O  O24  1  0.70481000  0.73804400  0.92264900  1
