# generated using pymatgen
data_Li2CrFeO4
_symmetry_space_group_name_H-M   'P 1'
_cell_length_a   10.19411000
_cell_length_b   5.85261200
_cell_length_c   5.06018446
_cell_angle_alpha   90.00000000
_cell_angle_beta   109.16452733
_cell_angle_gamma   90.00000000
_symmetry_Int_Tables_number   1
_chemical_formula_structural   Li2CrFeO4
_chemical_formula_sum   'Li8 Cr4 Fe4 O16'
_cell_volume   285.17014020
_cell_formula_units_Z   4
loop_
 _symmetry_equiv_pos_site_id
 _symmetry_equiv_pos_as_xyz
  1  'x, y, z'
loop_
 _atom_site_type_symbol
 _atom_site_label
 _atom_site_symmetry_multiplicity
 _atom_site_fract_x
 _atom_site_fract_y
 _atom_site_fract_z
 _atom_site_occupancy
  Li  Li0  1  0.24910250  0.62509350  0.74536800  1
  Li  Li1  1  0.25089750  0.12509350  0.75463200  1
  Li  Li2  1  0.24910250  0.37490650  0.24536800  1
  Li  Li3  1  0.25089750  0.87490650  0.25463200  1
  Li  Li4  1  0.74910250  0.12509350  0.74536800  1
  Li  Li5  1  0.75089750  0.62509350  0.75463200  1
  Li  Li6  1  0.74910250  0.87490650  0.24536800  1
  Li  Li7  1  0.75089750  0.37490650  0.25463200  1
  Cr  Cr8  1  0.00000000  0.87304000  0.75000000  1
  Cr  Cr9  1  0.00000000  0.12696000  0.25000000  1
  Cr  Cr10  1  0.50000000  0.37304000  0.75000000  1
  Cr  Cr11  1  0.50000000  0.62696000  0.25000000  1
  Fe  Fe12  1  0.00000000  0.37610200  0.75000000  1
  Fe  Fe13  1  0.00000000  0.62389800  0.25000000  1
  Fe  Fe14  1  0.50000000  0.87610200  0.75000000  1
  Fe  Fe15  1  0.50000000  0.12389800  0.25000000  1
  O  O16  1  0.38896650  0.12096250  0.50632000  1
  O  O17  1  0.38757750  0.62842950  0.51157800  1
  O  O18  1  0.38757750  0.37157050  0.01157800  1
  O  O19  1  0.11103350  0.37903750  0.49368000  1
  O  O20  1  0.11242250  0.87157050  0.48842200  1
  O  O21  1  0.11103350  0.62096250  0.99368000  1
  O  O22  1  0.38896650  0.87903750  0.00632000  1
  O  O23  1  0.11242250  0.12842950  0.98842200  1
  O  O24  1  0.88896650  0.62096250  0.50632000  1
  O  O25  1  0.88757750  0.12842950  0.51157800  1
  O  O26  1  0.88757750  0.87157050  0.01157800  1
  O  O27  1  0.61103350  0.87903750  0.49368000  1
  O  O28  1  0.61242250  0.37157050  0.48842200  1
  O  O29  1  0.61103350  0.12096250  0.99368000  1
  O  O30  1  0.88896650  0.37903750  0.00632000  1
  O  O31  1  0.61242250  0.62842950  0.98842200  1
