# generated using pymatgen
data_Li3V3P8O29
_symmetry_space_group_name_H-M   'P 1'
_cell_length_a   16.89250600
_cell_length_b   9.78460400
_cell_length_c   13.88175578
_cell_angle_alpha   90.00000000
_cell_angle_beta   90.14389425
_cell_angle_gamma   90.00000000
_symmetry_Int_Tables_number   1
_chemical_formula_structural   Li3V3P8O29
_chemical_formula_sum   'Li12 V12 P32 O116'
_cell_volume   2294.45933753
_cell_formula_units_Z   4
loop_
 _symmetry_equiv_pos_site_id
 _symmetry_equiv_pos_as_xyz
  1  'x, y, z'
loop_
 _atom_site_type_symbol
 _atom_site_label
 _atom_site_symmetry_multiplicity
 _atom_site_fract_x
 _atom_site_fract_y
 _atom_site_fract_z
 _atom_site_occupancy
  Li  Li0  1  0.38722400  0.70395500  0.19519800  1
  Li  Li1  1  0.38714950  0.28917950  0.68852600  1
  Li  Li2  1  0.15950500  0.06961500  0.19293600  1
  Li  Li3  1  0.84049500  0.06961500  0.80706400  1
  Li  Li4  1  0.61277600  0.70395500  0.80480200  1
  Li  Li5  1  0.61285050  0.28917950  0.31147400  1
  Li  Li6  1  0.88722400  0.20395500  0.19519800  1
  Li  Li7  1  0.88714950  0.78917950  0.68852600  1
  Li  Li8  1  0.65950500  0.56961500  0.19293600  1
  Li  Li9  1  0.34049500  0.56961500  0.80706400  1
  Li  Li10  1  0.11277600  0.20395500  0.80480200  1
  Li  Li11  1  0.11285050  0.78917950  0.31147400  1
  V  V12  1  0.78243400  0.78647900  0.49269000  1
  V  V13  1  0.71763350  0.72052750  0.00083800  1
  V  V14  1  0.28236650  0.72052750  0.99916200  1
  V  V15  1  0.21756600  0.78647900  0.50731000  1
  V  V16  1  0.50000000  0.93175500  0.50000000  1
  V  V17  1  0.50000000  0.06669200  0.00000000  1
  V  V18  1  0.28243400  0.28647900  0.49269000  1
  V  V19  1  0.21763350  0.22052750  0.00083800  1
  V  V20  1  0.78236650  0.22052750  0.99916200  1
  V  V21  1  0.71756600  0.28647900  0.50731000  1
  V  V22  1  0.00000000  0.43175500  0.50000000  1
  V  V23  1  0.00000000  0.56669200  0.00000000  1
  P  P24  1  0.45779850  0.77297150  0.90588100  1
  P  P25  1  0.38478250  0.70290850  0.40825600  1
  P  P26  1  0.45784150  0.22691850  0.40635800  1
  P  P27  1  0.33513200  0.00364200  0.62296100  1
  P  P28  1  0.33359200  0.00098100  0.12264200  1
  P  P29  1  0.38600700  0.29827700  0.90881200  1
  P  P30  1  0.84408900  0.93002000  0.09546700  1
  P  P31  1  0.15591100  0.93002000  0.90453300  1
  P  P32  1  0.84241950  0.06927950  0.59211300  1
  P  P33  1  0.15758050  0.06927950  0.40788700  1
  P  P34  1  0.61521750  0.70290850  0.59174400  1
  P  P35  1  0.66486800  0.00364200  0.37703900  1
  P  P36  1  0.66640800  0.00098100  0.87735800  1
  P  P37  1  0.54220150  0.77297150  0.09411900  1
  P  P38  1  0.61399300  0.29827700  0.09118800  1
  P  P39  1  0.54215850  0.22691850  0.59364200  1
  P  P40  1  0.95779850  0.27297150  0.90588100  1
  P  P41  1  0.88478250  0.20290850  0.40825600  1
  P  P42  1  0.95784150  0.72691850  0.40635800  1
  P  P43  1  0.83513200  0.50364200  0.62296100  1
  P  P44  1  0.83359200  0.50098100  0.12264200  1
  P  P45  1  0.88600700  0.79827700  0.90881200  1
  P  P46  1  0.34408900  0.43002000  0.09546700  1
  P  P47  1  0.65591100  0.43002000  0.90453300  1
  P  P48  1  0.34241950  0.56927950  0.59211300  1
  P  P49  1  0.65758050  0.56927950  0.40788700  1
  P  P50  1  0.11521750  0.20290850  0.59174400  1
  P  P51  1  0.16486800  0.50364200  0.37703900  1
  P  P52  1  0.16640800  0.50098100  0.87735800  1
  P  P53  1  0.04220150  0.27297150  0.09411900  1
  P  P54  1  0.11399300  0.79827700  0.09118800  1
  P  P55  1  0.04215850  0.72691850  0.59364200  1
  O  O56  1  0.49713950  0.73691850  0.18150800  1
  O  O57  1  0.45669650  0.80013650  0.41568100  1
  O  O58  1  0.87755650  0.11595550  0.68452000  1
  O  O59  1  0.37240450  0.71199750  0.90993700  1
  O  O60  1  0.45303100  0.92957100  0.92607500  1
  O  O61  1  0.40759100  0.92757800  0.57670500  1
  O  O62  1  0.45356850  0.07078850  0.42508700  1
  O  O63  1  0.49761650  0.26446250  0.68159300  1
  O  O64  1  0.45730900  0.20114800  0.91430500  1
  O  O65  1  0.33452600  0.84849800  0.07966300  1
  O  O66  1  0.30781800  0.78498400  0.42946700  1
  O  O67  1  0.40689250  0.07319350  0.07620300  1
  O  O68  1  0.33356500  0.00162400  0.73008700  1
  O  O69  1  0.33144350  0.99505150  0.22940200  1
  O  O70  1  0.33433650  0.15306250  0.58175800  1
  O  O71  1  0.23747300  0.85671600  0.92808300  1
  O  O72  1  0.25963000  0.92619800  0.57799300  1
  O  O73  1  0.37206200  0.28468300  0.41408900  1
  O  O74  1  0.89555700  0.90116700  0.99778900  1
  O  O75  1  0.38188250  0.37967550  0.18374300  1
  O  O76  1  0.37730350  0.37677750  0.81708400  1
  O  O77  1  0.30886550  0.21351250  0.92839700  1
  O  O78  1  0.25646800  0.07367100  0.08110900  1
  O  O79  1  0.83047850  0.91194550  0.58837000  1
  O  O80  1  0.23881900  0.14162500  0.42653000  1
  O  O81  1  0.16952150  0.91194550  0.41163000  1
  O  O82  1  0.89632050  0.10192850  0.49996000  1
  O  O83  1  0.37963100  0.62599900  0.31653800  1
  O  O84  1  0.62269650  0.37677750  0.18291600  1
  O  O85  1  0.82995700  0.08739200  0.08817800  1
  O  O86  1  0.76252700  0.85671600  0.07191700  1
  O  O87  1  0.17004300  0.08739200  0.91182200  1
  O  O88  1  0.74037000  0.92619800  0.42200700  1
  O  O89  1  0.69218200  0.78498400  0.57053300  1
  O  O90  1  0.62036900  0.62599900  0.68346200  1
  O  O91  1  0.12244350  0.11595550  0.31548000  1
  O  O92  1  0.10367950  0.10192850  0.50004000  1
  O  O93  1  0.62759550  0.71199750  0.09006300  1
  O  O94  1  0.74353200  0.07367100  0.91889100  1
  O  O95  1  0.76118100  0.14162500  0.57347000  1
  O  O96  1  0.66547400  0.84849800  0.92033700  1
  O  O97  1  0.66855650  0.99505150  0.77059800  1
  O  O98  1  0.66643500  0.00162400  0.26991300  1
  O  O99  1  0.59240900  0.92757800  0.42329500  1
  O  O100  1  0.69113450  0.21351250  0.07160300  1
  O  O101  1  0.66566350  0.15306250  0.41824200  1
  O  O102  1  0.54330350  0.80013650  0.58431900  1
  O  O103  1  0.50000000  0.70782900  0.00000000  1
  O  O104  1  0.50286050  0.73691850  0.81849200  1
  O  O105  1  0.54696900  0.92957100  0.07392500  1
  O  O106  1  0.59310750  0.07319350  0.92379700  1
  O  O107  1  0.54643150  0.07078850  0.57491300  1
  O  O108  1  0.62793800  0.28468300  0.58591100  1
  O  O109  1  0.61811750  0.37967550  0.81625700  1
  O  O110  1  0.10444300  0.90116700  0.00221100  1
  O  O111  1  0.54269100  0.20114800  0.08569500  1
  O  O112  1  0.50238350  0.26446250  0.31840700  1
  O  O113  1  0.50000000  0.29377200  0.50000000  1
  O  O114  1  0.99713950  0.23691850  0.18150800  1
  O  O115  1  0.95669650  0.30013650  0.41568100  1
  O  O116  1  0.37755650  0.61595550  0.68452000  1
  O  O117  1  0.87240450  0.21199750  0.90993700  1
  O  O118  1  0.95303100  0.42957100  0.92607500  1
  O  O119  1  0.90759100  0.42757800  0.57670500  1
  O  O120  1  0.95356850  0.57078850  0.42508700  1
  O  O121  1  0.99761650  0.76446250  0.68159300  1
  O  O122  1  0.95730900  0.70114800  0.91430500  1
  O  O123  1  0.83452600  0.34849800  0.07966300  1
  O  O124  1  0.80781800  0.28498400  0.42946700  1
  O  O125  1  0.90689250  0.57319350  0.07620300  1
  O  O126  1  0.83356500  0.50162400  0.73008700  1
  O  O127  1  0.83144350  0.49505150  0.22940200  1
  O  O128  1  0.83433650  0.65306250  0.58175800  1
  O  O129  1  0.73747300  0.35671600  0.92808300  1
  O  O130  1  0.75963000  0.42619800  0.57799300  1
  O  O131  1  0.87206200  0.78468300  0.41408900  1
  O  O132  1  0.39555700  0.40116700  0.99778900  1
  O  O133  1  0.88188250  0.87967550  0.18374300  1
  O  O134  1  0.87730350  0.87677750  0.81708400  1
  O  O135  1  0.80886550  0.71351250  0.92839700  1
  O  O136  1  0.75646800  0.57367100  0.08110900  1
  O  O137  1  0.33047850  0.41194550  0.58837000  1
  O  O138  1  0.73881900  0.64162500  0.42653000  1
  O  O139  1  0.66952150  0.41194550  0.41163000  1
  O  O140  1  0.39632050  0.60192850  0.49996000  1
  O  O141  1  0.87963100  0.12599900  0.31653800  1
  O  O142  1  0.12269650  0.87677750  0.18291600  1
  O  O143  1  0.32995700  0.58739200  0.08817800  1
  O  O144  1  0.26252700  0.35671600  0.07191700  1
  O  O145  1  0.67004300  0.58739200  0.91182200  1
  O  O146  1  0.24037000  0.42619800  0.42200700  1
  O  O147  1  0.19218200  0.28498400  0.57053300  1
  O  O148  1  0.12036900  0.12599900  0.68346200  1
  O  O149  1  0.62244350  0.61595550  0.31548000  1
  O  O150  1  0.60367950  0.60192850  0.50004000  1
  O  O151  1  0.12759550  0.21199750  0.09006300  1
  O  O152  1  0.24353200  0.57367100  0.91889100  1
  O  O153  1  0.26118100  0.64162500  0.57347000  1
  O  O154  1  0.16547400  0.34849800  0.92033700  1
  O  O155  1  0.16855650  0.49505150  0.77059800  1
  O  O156  1  0.16643500  0.50162400  0.26991300  1
  O  O157  1  0.09240900  0.42757800  0.42329500  1
  O  O158  1  0.19113450  0.71351250  0.07160300  1
  O  O159  1  0.16566350  0.65306250  0.41824200  1
  O  O160  1  0.04330350  0.30013650  0.58431900  1
  O  O161  1  0.00000000  0.20782900  0.00000000  1
  O  O162  1  0.00286050  0.23691850  0.81849200  1
  O  O163  1  0.04696900  0.42957100  0.07392500  1
  O  O164  1  0.09310750  0.57319350  0.92379700  1
  O  O165  1  0.04643150  0.57078850  0.57491300  1
  O  O166  1  0.12793800  0.78468300  0.58591100  1
  O  O167  1  0.11811750  0.87967550  0.81625700  1
  O  O168  1  0.60444300  0.40116700  0.00221100  1
  O  O169  1  0.04269100  0.70114800  0.08569500  1
  O  O170  1  0.00238350  0.76446250  0.31840700  1
  O  O171  1  0.00000000  0.79377200  0.50000000  1
