# generated using pymatgen
data_Ti4VO8
_symmetry_space_group_name_H-M   'P 1'
_cell_length_a   10.06826800
_cell_length_b   5.92721400
_cell_length_c   5.84109160
_cell_angle_alpha   90.00000000
_cell_angle_beta   124.10576055
_cell_angle_gamma   90.00000000
_symmetry_Int_Tables_number   1
_chemical_formula_structural   Ti4VO8
_chemical_formula_sum   'Ti8 V2 O16'
_cell_volume   288.62357898
_cell_formula_units_Z   2
loop_
 _symmetry_equiv_pos_site_id
 _symmetry_equiv_pos_as_xyz
  1  'x, y, z'
loop_
 _atom_site_type_symbol
 _atom_site_label
 _atom_site_symmetry_multiplicity
 _atom_site_fract_x
 _atom_site_fract_y
 _atom_site_fract_z
 _atom_site_occupancy
  Ti  Ti0  1  0.50000000  0.00000000  0.50000000  1
  Ti  Ti1  1  0.00000000  0.00000000  0.00000000  1
  Ti  Ti2  1  0.25000000  0.25000000  0.50000000  1
  Ti  Ti3  1  0.25000000  0.75000000  0.50000000  1
  Ti  Ti4  1  0.00000000  0.50000000  0.50000000  1
  Ti  Ti5  1  0.50000000  0.50000000  0.00000000  1
  Ti  Ti6  1  0.75000000  0.75000000  0.50000000  1
  Ti  Ti7  1  0.75000000  0.25000000  0.50000000  1
  V  V8  1  0.50000000  0.00000000  0.00000000  1
  V  V9  1  0.00000000  0.50000000  0.00000000  1
  O  O10  1  0.26156500  0.00000000  0.72728200  1
  O  O11  1  0.50548700  0.24590600  0.25097900  1
  O  O12  1  0.50548700  0.75409400  0.25097900  1
  O  O13  1  0.74914100  0.00000000  0.73900100  1
  O  O14  1  0.25085900  0.00000000  0.26099900  1
  O  O15  1  0.49451300  0.24590600  0.74902100  1
  O  O16  1  0.49451300  0.75409400  0.74902100  1
  O  O17  1  0.73843500  0.00000000  0.27271800  1
  O  O18  1  0.76156500  0.50000000  0.72728200  1
  O  O19  1  0.00548700  0.74590600  0.25097900  1
  O  O20  1  0.00548700  0.25409400  0.25097900  1
  O  O21  1  0.24914100  0.50000000  0.73900100  1
  O  O22  1  0.75085900  0.50000000  0.26099900  1
  O  O23  1  0.99451300  0.74590600  0.74902100  1
  O  O24  1  0.99451300  0.25409400  0.74902100  1
  O  O25  1  0.23843500  0.50000000  0.27271800  1
