# generated using pymatgen
data_BiO2
_symmetry_space_group_name_H-M   'P 1'
_cell_length_a   6.08297200
_cell_length_b   6.06450800
_cell_length_c   6.60244156
_cell_angle_alpha   90.00000000
_cell_angle_beta   116.22361485
_cell_angle_gamma   90.00000000
_symmetry_Int_Tables_number   1
_chemical_formula_structural   BiO2
_chemical_formula_sum   'Bi4 O8'
_cell_volume   218.49693589
_cell_formula_units_Z   4
loop_
 _symmetry_equiv_pos_site_id
 _symmetry_equiv_pos_as_xyz
  1  'x, y, z'
loop_
 _atom_site_type_symbol
 _atom_site_label
 _atom_site_symmetry_multiplicity
 _atom_site_fract_x
 _atom_site_fract_y
 _atom_site_fract_z
 _atom_site_occupancy
  Bi  Bi0  1  0.50000000  0.37064200  0.75000000  1
  Bi  Bi1  1  0.50000000  0.62935800  0.25000000  1
  Bi  Bi2  1  0.00000000  0.87064200  0.75000000  1
  Bi  Bi3  1  0.00000000  0.12935800  0.25000000  1
  O  O4  1  0.19566450  0.11991250  0.63698800  1
  O  O5  1  0.19566450  0.88008750  0.13698800  1
  O  O6  1  0.80433550  0.11991250  0.86301200  1
  O  O7  1  0.80433550  0.88008750  0.36301200  1
  O  O8  1  0.69566450  0.61991250  0.63698800  1
  O  O9  1  0.69566450  0.38008750  0.13698800  1
  O  O10  1  0.30433550  0.61991250  0.86301200  1
  O  O11  1  0.30433550  0.38008750  0.36301200  1
