# generated using pymatgen
data_Li4MnF7
_symmetry_space_group_name_H-M   'P 1'
_cell_length_a   12.49882200
_cell_length_b   8.96328000
_cell_length_c   5.41395349
_cell_angle_alpha   90.00000000
_cell_angle_beta   103.60506895
_cell_angle_gamma   90.00000000
_symmetry_Int_Tables_number   1
_chemical_formula_structural   Li4MnF7
_chemical_formula_sum   'Li16 Mn4 F28'
_cell_volume   589.50855108
_cell_formula_units_Z   4
loop_
 _symmetry_equiv_pos_site_id
 _symmetry_equiv_pos_as_xyz
  1  'x, y, z'
loop_
 _atom_site_type_symbol
 _atom_site_label
 _atom_site_symmetry_multiplicity
 _atom_site_fract_x
 _atom_site_fract_y
 _atom_site_fract_z
 _atom_site_occupancy
  Li  Li0  1  0.85172350  0.09058550  0.66961400  1
  Li  Li1  1  0.85172350  0.90941450  0.16961400  1
  Li  Li2  1  0.63673100  0.94276200  0.74186000  1
  Li  Li3  1  0.63673100  0.05723800  0.24186000  1
  Li  Li4  1  0.36326900  0.94276200  0.75814000  1
  Li  Li5  1  0.36326900  0.05723800  0.25814000  1
  Li  Li6  1  0.14827650  0.09058550  0.83038600  1
  Li  Li7  1  0.14827650  0.90941450  0.33038600  1
  Li  Li8  1  0.35172350  0.59058550  0.66961400  1
  Li  Li9  1  0.35172350  0.40941450  0.16961400  1
  Li  Li10  1  0.13673100  0.44276200  0.74186000  1
  Li  Li11  1  0.13673100  0.55723800  0.24186000  1
  Li  Li12  1  0.86326900  0.44276200  0.75814000  1
  Li  Li13  1  0.86326900  0.55723800  0.25814000  1
  Li  Li14  1  0.64827650  0.59058550  0.83038600  1
  Li  Li15  1  0.64827650  0.40941450  0.33038600  1
  Mn  Mn16  1  0.50000000  0.26035400  0.75000000  1
  Mn  Mn17  1  0.50000000  0.73964600  0.25000000  1
  Mn  Mn18  1  0.00000000  0.76035400  0.75000000  1
  Mn  Mn19  1  0.00000000  0.23964600  0.25000000  1
  F  F20  1  0.90390950  0.90942350  0.85760700  1
  F  F21  1  0.90390950  0.09057650  0.35760700  1
  F  F22  1  0.70109050  0.08449350  0.57898300  1
  F  F23  1  0.70109050  0.91550650  0.07898300  1
  F  F24  1  0.58869850  0.74789450  0.58124000  1
  F  F25  1  0.58869850  0.25210550  0.08124000  1
  F  F26  1  0.50000000  0.04861000  0.75000000  1
  F  F27  1  0.50000000  0.95139000  0.25000000  1
  F  F28  1  0.41130150  0.74789450  0.91876000  1
  F  F29  1  0.41130150  0.25210550  0.41876000  1
  F  F30  1  0.29890950  0.08449350  0.92101700  1
  F  F31  1  0.29890950  0.91550650  0.42101700  1
  F  F32  1  0.09609050  0.90942350  0.64239300  1
  F  F33  1  0.09609050  0.09057650  0.14239300  1
  F  F34  1  0.40390950  0.40942350  0.85760700  1
  F  F35  1  0.40390950  0.59057650  0.35760700  1
  F  F36  1  0.20109050  0.58449350  0.57898300  1
  F  F37  1  0.20109050  0.41550650  0.07898300  1
  F  F38  1  0.08869850  0.24789450  0.58124000  1
  F  F39  1  0.08869850  0.75210550  0.08124000  1
  F  F40  1  0.00000000  0.54861000  0.75000000  1
  F  F41  1  0.00000000  0.45139000  0.25000000  1
  F  F42  1  0.91130150  0.24789450  0.91876000  1
  F  F43  1  0.91130150  0.75210550  0.41876000  1
  F  F44  1  0.79890950  0.58449350  0.92101700  1
  F  F45  1  0.79890950  0.41550650  0.42101700  1
  F  F46  1  0.59609050  0.40942350  0.64239300  1
  F  F47  1  0.59609050  0.59057650  0.14239300  1
