# generated using pymatgen
data_LiSi2NiO6
_symmetry_space_group_name_H-M   'P 1'
_cell_length_a   5.34327700
_cell_length_b   9.30561000
_cell_length_c   5.54674050
_cell_angle_alpha   90.00000000
_cell_angle_beta   90.00000000
_cell_angle_gamma   90.00000000
_symmetry_Int_Tables_number   1
_chemical_formula_structural   LiSi2NiO6
_chemical_formula_sum   'Li2 Si4 Ni2 O12'
_cell_volume   275.79753762
_cell_formula_units_Z   2
loop_
 _symmetry_equiv_pos_site_id
 _symmetry_equiv_pos_as_xyz
  1  'x, y, z'
loop_
 _atom_site_type_symbol
 _atom_site_label
 _atom_site_symmetry_multiplicity
 _atom_site_fract_x
 _atom_site_fract_y
 _atom_site_fract_z
 _atom_site_occupancy
  Li  Li0  1  0.50000000  0.00000000  0.50000000  1
  Li  Li1  1  0.00000000  0.50000000  0.50000000  1
  Si  Si2  1  0.25000000  0.25000000  0.16607200  1
  Si  Si3  1  0.75000000  0.25000000  0.83392800  1
  Si  Si4  1  0.75000000  0.75000000  0.16607200  1
  Si  Si5  1  0.25000000  0.75000000  0.83392800  1
  Ni  Ni6  1  0.00000000  0.00000000  0.50000000  1
  Ni  Ni7  1  0.50000000  0.50000000  0.50000000  1
  O  O8  1  0.00000000  0.26291500  0.00000000  1
  O  O9  1  0.50000000  0.23708500  0.00000000  1
  O  O10  1  0.23592600  0.10541300  0.33283200  1
  O  O11  1  0.76407400  0.10541300  0.66716800  1
  O  O12  1  0.73592600  0.39458700  0.66716800  1
  O  O13  1  0.26407400  0.39458700  0.33283200  1
  O  O14  1  0.50000000  0.76291500  0.00000000  1
  O  O15  1  0.00000000  0.73708500  0.00000000  1
  O  O16  1  0.73592600  0.60541300  0.33283200  1
  O  O17  1  0.26407400  0.60541300  0.66716800  1
  O  O18  1  0.23592600  0.89458700  0.66716800  1
  O  O19  1  0.76407400  0.89458700  0.33283200  1
