# generated using pymatgen
data_Li3V5Cr2O12
_symmetry_space_group_name_H-M   'P 1'
_cell_length_a   5.12154800
_cell_length_b   9.12339400
_cell_length_c   9.95373343
_cell_angle_alpha   90.00000000
_cell_angle_beta   101.92778808
_cell_angle_gamma   90.00000000
_symmetry_Int_Tables_number   1
_chemical_formula_structural   Li3V5Cr2O12
_chemical_formula_sum   'Li6 V10 Cr4 O24'
_cell_volume   455.05517903
_cell_formula_units_Z   2
loop_
 _symmetry_equiv_pos_site_id
 _symmetry_equiv_pos_as_xyz
  1  'x, y, z'
loop_
 _atom_site_type_symbol
 _atom_site_label
 _atom_site_symmetry_multiplicity
 _atom_site_fract_x
 _atom_site_fract_y
 _atom_site_fract_z
 _atom_site_occupancy
  Li  Li0  1  0.26152200  0.58009900  0.76278200  1
  Li  Li1  1  0.73847800  0.58009900  0.23721800  1
  Li  Li2  1  0.00000000  0.92214300  0.00000000  1
  Li  Li3  1  0.76152200  0.08009900  0.76278200  1
  Li  Li4  1  0.23847800  0.08009900  0.23721800  1
  Li  Li5  1  0.50000000  0.42214300  0.00000000  1
  V  V6  1  0.75818250  0.75770550  0.76385800  1
  V  V7  1  0.50000000  0.58244900  0.50000000  1
  V  V8  1  0.00000000  0.56823100  0.00000000  1
  V  V9  1  0.24181750  0.75770550  0.23614200  1
  V  V10  1  0.50000000  0.92406400  0.50000000  1
  V  V11  1  0.25818250  0.25770550  0.76385800  1
  V  V12  1  0.00000000  0.08244900  0.50000000  1
  V  V13  1  0.50000000  0.06823100  0.00000000  1
  V  V14  1  0.74181750  0.25770550  0.23614200  1
  V  V15  1  0.00000000  0.42406400  0.50000000  1
  Cr  Cr16  1  0.50000000  0.74816400  0.00000000  1
  Cr  Cr17  1  0.00000000  0.75719600  0.50000000  1
  Cr  Cr18  1  0.00000000  0.24816400  0.00000000  1
  Cr  Cr19  1  0.50000000  0.25719600  0.50000000  1
  O  O20  1  0.37735250  0.60191950  0.11976900  1
  O  O21  1  0.60777900  0.75127300  0.38707100  1
  O  O22  1  0.12377600  0.60169100  0.38723500  1
  O  O23  1  0.11256000  0.72502100  0.88280100  1
  O  O24  1  0.63579650  0.90408050  0.88293700  1
  O  O25  1  0.86708900  0.91500600  0.61315000  1
  O  O26  1  0.62264750  0.60191950  0.88023100  1
  O  O27  1  0.39222100  0.75127300  0.61292900  1
  O  O28  1  0.87622400  0.60169100  0.61276500  1
  O  O29  1  0.88744000  0.72502100  0.11719900  1
  O  O30  1  0.36420350  0.90408050  0.11706300  1
  O  O31  1  0.13291100  0.91500600  0.38685000  1
  O  O32  1  0.87735250  0.10191950  0.11976900  1
  O  O33  1  0.10777900  0.25127300  0.38707100  1
  O  O34  1  0.62377600  0.10169100  0.38723500  1
  O  O35  1  0.61256000  0.22502100  0.88280100  1
  O  O36  1  0.13579650  0.40408050  0.88293700  1
  O  O37  1  0.36708900  0.41500600  0.61315000  1
  O  O38  1  0.12264750  0.10191950  0.88023100  1
  O  O39  1  0.89222100  0.25127300  0.61292900  1
  O  O40  1  0.37622400  0.10169100  0.61276500  1
  O  O41  1  0.38744000  0.22502100  0.11719900  1
  O  O42  1  0.86420350  0.40408050  0.11706300  1
  O  O43  1  0.63291100  0.41500600  0.38685000  1
