# generated using pymatgen
data_Li4Ti3Nb2V3O16
_symmetry_space_group_name_H-M   'P 1'
_cell_length_a   10.48576400
_cell_length_b   5.99547800
_cell_length_c   9.84299406
_cell_angle_alpha   90.00000000
_cell_angle_beta   90.00623426
_cell_angle_gamma   90.00000000
_symmetry_Int_Tables_number   1
_chemical_formula_structural   Li4Ti3Nb2V3O16
_chemical_formula_sum   'Li8 Ti6 Nb4 V6 O32'
_cell_volume   618.80115127
_cell_formula_units_Z   2
loop_
 _symmetry_equiv_pos_site_id
 _symmetry_equiv_pos_as_xyz
  1  'x, y, z'
loop_
 _atom_site_type_symbol
 _atom_site_label
 _atom_site_symmetry_multiplicity
 _atom_site_fract_x
 _atom_site_fract_y
 _atom_site_fract_z
 _atom_site_occupancy
  Li  Li0  1  0.66398800  0.00000000  0.09874600  1
  Li  Li1  1  0.50038500  0.50000000  0.01051600  1
  Li  Li2  1  0.50396000  0.50000000  0.50673600  1
  Li  Li3  1  0.83286200  0.50000000  0.59856000  1
  Li  Li4  1  0.16398800  0.50000000  0.09874600  1
  Li  Li5  1  0.00038500  0.00000000  0.01051600  1
  Li  Li6  1  0.00396000  0.00000000  0.50673600  1
  Li  Li7  1  0.33286200  0.00000000  0.59856000  1
  Ti  Ti8  1  0.59065150  0.75479550  0.78032500  1
  Ti  Ti9  1  0.59065150  0.24520450  0.78032500  1
  Ti  Ti10  1  0.67571300  0.50000000  0.27170300  1
  Ti  Ti11  1  0.09065150  0.25479550  0.78032500  1
  Ti  Ti12  1  0.09065150  0.74520450  0.78032500  1
  Ti  Ti13  1  0.17571300  0.00000000  0.27170300  1
  Nb  Nb14  1  0.67052600  0.00000000  0.50357800  1
  Nb  Nb15  1  0.84128600  0.50000000  0.00577100  1
  Nb  Nb16  1  0.17052600  0.50000000  0.50357800  1
  Nb  Nb17  1  0.34128600  0.00000000  0.00577100  1
  V  V18  1  0.82724900  0.00000000  0.78841100  1
  V  V19  1  0.91549400  0.26320500  0.28844400  1
  V  V20  1  0.91549400  0.73679500  0.28844400  1
  V  V21  1  0.32724900  0.50000000  0.78841100  1
  V  V22  1  0.41549400  0.76320500  0.28844400  1
  V  V23  1  0.41549400  0.23679500  0.28844400  1
  O  O24  1  0.58707150  0.75367150  0.40743300  1
  O  O25  1  0.51931100  0.00000000  0.66269600  1
  O  O26  1  0.65529000  0.00000000  0.89551800  1
  O  O27  1  0.50412500  0.50000000  0.69431000  1
  O  O28  1  0.50590300  0.50000000  0.19770900  1
  O  O29  1  0.58707150  0.24632850  0.40743300  1
  O  O30  1  0.73395650  0.77118850  0.65766000  1
  O  O31  1  0.73395650  0.22881150  0.65766000  1
  O  O32  1  0.66635900  0.50000000  0.90239700  1
  O  O33  1  0.83420800  0.00000000  0.41130100  1
  O  O34  1  0.75314100  0.28096200  0.15677800  1
  O  O35  1  0.75314100  0.71903800  0.15677800  1
  O  O36  1  0.81906200  0.50000000  0.39744900  1
  O  O37  1  0.92021750  0.25298550  0.90704200  1
  O  O38  1  0.97923600  0.50000000  0.15140100  1
  O  O39  1  0.92021750  0.74701450  0.90704200  1
  O  O40  1  0.08707150  0.25367150  0.40743300  1
  O  O41  1  0.01931100  0.50000000  0.66269600  1
  O  O42  1  0.15529000  0.50000000  0.89551800  1
  O  O43  1  0.00412500  0.00000000  0.69431000  1
  O  O44  1  0.00590300  0.00000000  0.19770900  1
  O  O45  1  0.08707150  0.74632850  0.40743300  1
  O  O46  1  0.23395650  0.27118850  0.65766000  1
  O  O47  1  0.23395650  0.72881150  0.65766000  1
  O  O48  1  0.16635900  0.00000000  0.90239700  1
  O  O49  1  0.33420800  0.50000000  0.41130100  1
  O  O50  1  0.25314100  0.78096200  0.15677800  1
  O  O51  1  0.25314100  0.21903800  0.15677800  1
  O  O52  1  0.31906200  0.00000000  0.39744900  1
  O  O53  1  0.42021750  0.75298550  0.90704200  1
  O  O54  1  0.47923600  0.00000000  0.15140100  1
  O  O55  1  0.42021750  0.24701450  0.90704200  1
