# generated using pymatgen
data_Mn9CdO10
_symmetry_space_group_name_H-M   'P 1'
_cell_length_a   5.56924800
_cell_length_b   16.07701400
_cell_length_c   5.56955246
_cell_angle_alpha   90.00000000
_cell_angle_beta   109.53114064
_cell_angle_gamma   90.00000000
_symmetry_Int_Tables_number   1
_chemical_formula_structural   Mn9CdO10
_chemical_formula_sum   'Mn18 Cd2 O20'
_cell_volume   469.98623592
_cell_formula_units_Z   2
loop_
 _symmetry_equiv_pos_site_id
 _symmetry_equiv_pos_as_xyz
  1  'x, y, z'
loop_
 _atom_site_type_symbol
 _atom_site_label
 _atom_site_symmetry_multiplicity
 _atom_site_fract_x
 _atom_site_fract_y
 _atom_site_fract_z
 _atom_site_occupancy
  Mn  Mn0  1  0.50000000  0.20086000  0.50000000  1
  Mn  Mn1  1  0.00000000  0.39904700  0.00000000  1
  Mn  Mn2  1  0.50000000  0.39900200  0.50000000  1
  Mn  Mn3  1  0.50000000  0.10095300  0.00000000  1
  Mn  Mn4  1  0.50000000  0.29860400  0.00000000  1
  Mn  Mn5  1  0.00000000  0.29914000  0.50000000  1
  Mn  Mn6  1  0.00000000  0.10099800  0.50000000  1
  Mn  Mn7  1  0.00000000  0.20139600  0.00000000  1
  Mn  Mn8  1  0.00000000  0.00000000  0.00000000  1
  Mn  Mn9  1  0.00000000  0.70086000  0.50000000  1
  Mn  Mn10  1  0.50000000  0.89904700  0.00000000  1
  Mn  Mn11  1  0.00000000  0.89900200  0.50000000  1
  Mn  Mn12  1  0.00000000  0.60095300  0.00000000  1
  Mn  Mn13  1  0.00000000  0.79860400  0.00000000  1
  Mn  Mn14  1  0.50000000  0.79914000  0.50000000  1
  Mn  Mn15  1  0.50000000  0.60099800  0.50000000  1
  Mn  Mn16  1  0.50000000  0.70139600  0.00000000  1
  Mn  Mn17  1  0.50000000  0.50000000  0.00000000  1
  Cd  Cd18  1  0.50000000  0.00000000  0.50000000  1
  Cd  Cd19  1  0.00000000  0.50000000  0.50000000  1
  O  O20  1  0.25682550  0.39566450  0.75689600  1
  O  O21  1  0.25160400  0.19950000  0.74850500  1
  O  O22  1  0.75160400  0.30050000  0.74850500  1
  O  O23  1  0.75682550  0.10433550  0.75689600  1
  O  O24  1  0.24839600  0.30050000  0.25149500  1
  O  O25  1  0.75984500  0.00000000  0.24021400  1
  O  O26  1  0.24015500  0.00000000  0.75978600  1
  O  O27  1  0.74317450  0.39566450  0.24310400  1
  O  O28  1  0.74839600  0.19950000  0.25149500  1
  O  O29  1  0.24317450  0.10433550  0.24310400  1
  O  O30  1  0.75682550  0.89566450  0.75689600  1
  O  O31  1  0.75160400  0.69950000  0.74850500  1
  O  O32  1  0.25160400  0.80050000  0.74850500  1
  O  O33  1  0.25682550  0.60433550  0.75689600  1
  O  O34  1  0.74839600  0.80050000  0.25149500  1
  O  O35  1  0.25984500  0.50000000  0.24021400  1
  O  O36  1  0.74015500  0.50000000  0.75978600  1
  O  O37  1  0.24317450  0.89566450  0.24310400  1
  O  O38  1  0.24839600  0.69950000  0.25149500  1
  O  O39  1  0.74317450  0.60433550  0.24310400  1
