# generated using pymatgen
data_Ti2Mn3Te3O16
_symmetry_space_group_name_H-M   'P 1'
_cell_length_a   11.21784800
_cell_length_b   6.16562400
_cell_length_c   9.34028350
_cell_angle_alpha   90.00000000
_cell_angle_beta   93.84239603
_cell_angle_gamma   90.00000000
_symmetry_Int_Tables_number   1
_chemical_formula_structural   Ti2Mn3Te3O16
_chemical_formula_sum   'Ti4 Mn6 Te6 O32'
_cell_volume   644.56886073
_cell_formula_units_Z   2
loop_
 _symmetry_equiv_pos_site_id
 _symmetry_equiv_pos_as_xyz
  1  'x, y, z'
loop_
 _atom_site_type_symbol
 _atom_site_label
 _atom_site_symmetry_multiplicity
 _atom_site_fract_x
 _atom_site_fract_y
 _atom_site_fract_z
 _atom_site_occupancy
  Ti  Ti0  1  0.67837400  0.00000000  0.51034500  1
  Ti  Ti1  1  0.86265400  0.50000000  0.96464800  1
  Ti  Ti2  1  0.17837400  0.50000000  0.51034500  1
  Ti  Ti3  1  0.36265400  0.00000000  0.96464800  1
  Mn  Mn4  1  0.82299000  0.00000000  0.20318500  1
  Mn  Mn5  1  0.92558250  0.75006950  0.69384900  1
  Mn  Mn6  1  0.92558250  0.24993050  0.69384900  1
  Mn  Mn7  1  0.32299000  0.50000000  0.20318500  1
  Mn  Mn8  1  0.42558250  0.25006950  0.69384900  1
  Mn  Mn9  1  0.42558250  0.74993050  0.69384900  1
  Te  Te10  1  0.57534100  0.24930300  0.21681400  1
  Te  Te11  1  0.57534100  0.75069700  0.21681400  1
  Te  Te12  1  0.67650100  0.50000000  0.71577600  1
  Te  Te13  1  0.07534100  0.74930300  0.21681400  1
  Te  Te14  1  0.07534100  0.25069700  0.21681400  1
  Te  Te15  1  0.17650100  0.00000000  0.71577600  1
  O  O16  1  0.60527550  0.24507050  0.60064900  1
  O  O17  1  0.51701600  0.00000000  0.33908900  1
  O  O18  1  0.63731900  0.00000000  0.09905100  1
  O  O19  1  0.50533400  0.50000000  0.32393000  1
  O  O20  1  0.52378600  0.50000000  0.79825300  1
  O  O21  1  0.60527550  0.75492950  0.60064900  1
  O  O22  1  0.71862150  0.22040350  0.33758100  1
  O  O23  1  0.71862150  0.77959650  0.33758100  1
  O  O24  1  0.64379700  0.50000000  0.11078800  1
  O  O25  1  0.82587000  0.00000000  0.58483100  1
  O  O26  1  0.75991100  0.70417200  0.85192800  1
  O  O27  1  0.75991100  0.29582800  0.85192800  1
  O  O28  1  0.81466100  0.50000000  0.60249600  1
  O  O29  1  0.92282300  0.74087900  0.10628700  1
  O  O30  1  0.97666300  0.50000000  0.84782400  1
  O  O31  1  0.92282300  0.25912100  0.10628700  1
  O  O32  1  0.10527550  0.74507050  0.60064900  1
  O  O33  1  0.01701600  0.50000000  0.33908900  1
  O  O34  1  0.13731900  0.50000000  0.09905100  1
  O  O35  1  0.00533400  0.00000000  0.32393000  1
  O  O36  1  0.02378600  0.00000000  0.79825300  1
  O  O37  1  0.10527550  0.25492950  0.60064900  1
  O  O38  1  0.21862150  0.72040350  0.33758100  1
  O  O39  1  0.21862150  0.27959650  0.33758100  1
  O  O40  1  0.14379700  0.00000000  0.11078800  1
  O  O41  1  0.32587000  0.50000000  0.58483100  1
  O  O42  1  0.25991100  0.20417200  0.85192800  1
  O  O43  1  0.25991100  0.79582800  0.85192800  1
  O  O44  1  0.31466100  0.00000000  0.60249600  1
  O  O45  1  0.42282300  0.24087900  0.10628700  1
  O  O46  1  0.47666300  0.00000000  0.84782400  1
  O  O47  1  0.42282300  0.75912100  0.10628700  1
