# generated using pymatgen
data_Li4Fe7(PO4)6
_symmetry_space_group_name_H-M   'P 1'
_cell_length_a   10.84316600
_cell_length_b   14.27769000
_cell_length_c   6.57041619
_cell_angle_alpha   90.00000000
_cell_angle_beta   105.95629607
_cell_angle_gamma   90.00000000
_symmetry_Int_Tables_number   1
_chemical_formula_structural   Li4Fe7(PO4)6
_chemical_formula_sum   'Li8 Fe14 P12 O48'
_cell_volume   978.01029193
_cell_formula_units_Z   2
loop_
 _symmetry_equiv_pos_site_id
 _symmetry_equiv_pos_as_xyz
  1  'x, y, z'
loop_
 _atom_site_type_symbol
 _atom_site_label
 _atom_site_symmetry_multiplicity
 _atom_site_fract_x
 _atom_site_fract_y
 _atom_site_fract_z
 _atom_site_occupancy
  Li  Li0  1  0.99707400  0.00000000  0.49738400  1
  Li  Li1  1  0.37004500  0.00000000  0.58106800  1
  Li  Li2  1  0.55380450  0.11540450  0.49685400  1
  Li  Li3  1  0.55380450  0.88459550  0.49685400  1
  Li  Li4  1  0.49707400  0.50000000  0.49738400  1
  Li  Li5  1  0.87004500  0.50000000  0.58106800  1
  Li  Li6  1  0.05380450  0.61540450  0.49685400  1
  Li  Li7  1  0.05380450  0.38459550  0.49685400  1
  Fe  Fe8  1  0.32265400  0.32026100  0.18109100  1
  Fe  Fe9  1  0.32265400  0.67973900  0.18109100  1
  Fe  Fe10  1  0.00167400  0.00000000  0.99785100  1
  Fe  Fe11  1  0.50436500  0.83143700  0.00217800  1
  Fe  Fe12  1  0.50436500  0.16856300  0.00217800  1
  Fe  Fe13  1  0.18537750  0.17735550  0.82269400  1
  Fe  Fe14  1  0.18537750  0.82264450  0.82269400  1
  Fe  Fe15  1  0.82265400  0.82026100  0.18109100  1
  Fe  Fe16  1  0.82265400  0.17973900  0.18109100  1
  Fe  Fe17  1  0.50167400  0.50000000  0.99785100  1
  Fe  Fe18  1  0.00436500  0.33143700  0.00217800  1
  Fe  Fe19  1  0.00436500  0.66856300  0.00217800  1
  Fe  Fe20  1  0.68537750  0.67735550  0.82269400  1
  Fe  Fe21  1  0.68537750  0.32264450  0.82269400  1
  P  P22  1  0.41073500  0.31250300  0.69884000  1
  P  P23  1  0.41073500  0.68749700  0.69884000  1
  P  P24  1  0.32994300  0.00000000  0.09420900  1
  P  P25  1  0.67685200  0.00000000  0.91619300  1
  P  P26  1  0.60229750  0.68219550  0.30445900  1
  P  P27  1  0.60229750  0.31780450  0.30445900  1
  P  P28  1  0.91073500  0.81250300  0.69884000  1
  P  P29  1  0.91073500  0.18749700  0.69884000  1
  P  P30  1  0.82994300  0.50000000  0.09420900  1
  P  P31  1  0.17685200  0.50000000  0.91619300  1
  P  P32  1  0.10229750  0.18219550  0.30445900  1
  P  P33  1  0.10229750  0.81780450  0.30445900  1
  O  O34  1  0.19335150  0.15543050  0.51900700  1
  O  O35  1  0.19335150  0.84456950  0.51900700  1
  O  O36  1  0.33875850  0.71185450  0.86963000  1
  O  O37  1  0.33875850  0.28814550  0.86963000  1
  O  O38  1  0.19732200  0.00000000  0.12930200  1
  O  O39  1  0.34428050  0.91277150  0.95483100  1
  O  O40  1  0.34428050  0.08722850  0.95483100  1
  O  O41  1  0.50432100  0.39820400  0.75579700  1
  O  O42  1  0.50432100  0.60179600  0.75579700  1
  O  O43  1  0.50493300  0.22630800  0.71125900  1
  O  O44  1  0.50493300  0.77369200  0.71125900  1
  O  O45  1  0.43565000  0.00000000  0.30769200  1
  O  O46  1  0.56391300  0.00000000  0.71010700  1
  O  O47  1  0.51798250  0.77320250  0.29944500  1
  O  O48  1  0.51798250  0.22679750  0.29944500  1
  O  O49  1  0.49971750  0.60206050  0.24037800  1
  O  O50  1  0.49971750  0.39793950  0.24037800  1
  O  O51  1  0.80637500  0.00000000  0.86984000  1
  O  O52  1  0.67678050  0.70437550  0.13701600  1
  O  O53  1  0.67678050  0.29562450  0.13701600  1
  O  O54  1  0.66588950  0.08932250  0.04996900  1
  O  O55  1  0.66588950  0.91067750  0.04996900  1
  O  O56  1  0.81479350  0.16871850  0.48513300  1
  O  O57  1  0.81479350  0.83128150  0.48513300  1
  O  O58  1  0.69335150  0.65543050  0.51900700  1
  O  O59  1  0.69335150  0.34456950  0.51900700  1
  O  O60  1  0.83875850  0.21185450  0.86963000  1
  O  O61  1  0.83875850  0.78814550  0.86963000  1
  O  O62  1  0.69732200  0.50000000  0.12930200  1
  O  O63  1  0.84428050  0.41277150  0.95483100  1
  O  O64  1  0.84428050  0.58722850  0.95483100  1
  O  O65  1  0.00432100  0.89820400  0.75579700  1
  O  O66  1  0.00432100  0.10179600  0.75579700  1
  O  O67  1  0.00493300  0.72630800  0.71125900  1
  O  O68  1  0.00493300  0.27369200  0.71125900  1
  O  O69  1  0.93565000  0.50000000  0.30769200  1
  O  O70  1  0.06391300  0.50000000  0.71010700  1
  O  O71  1  0.01798250  0.27320250  0.29944500  1
  O  O72  1  0.01798250  0.72679750  0.29944500  1
  O  O73  1  0.99971750  0.10206050  0.24037800  1
  O  O74  1  0.99971750  0.89793950  0.24037800  1
  O  O75  1  0.30637500  0.50000000  0.86984000  1
  O  O76  1  0.17678050  0.20437550  0.13701600  1
  O  O77  1  0.17678050  0.79562450  0.13701600  1
  O  O78  1  0.16588950  0.58932250  0.04996900  1
  O  O79  1  0.16588950  0.41067750  0.04996900  1
  O  O80  1  0.31479350  0.66871850  0.48513300  1
  O  O81  1  0.31479350  0.33128150  0.48513300  1
