# generated using pymatgen
data_VRhO4
_symmetry_space_group_name_H-M   'P 1'
_cell_length_a   6.57208400
_cell_length_b   6.57208400
_cell_length_c   5.89798200
_cell_angle_alpha   90.00000000
_cell_angle_beta   90.00000000
_cell_angle_gamma   90.00000000
_symmetry_Int_Tables_number   1
_chemical_formula_structural   VRhO4
_chemical_formula_sum   'V4 Rh4 O16'
_cell_volume   254.74733777
_cell_formula_units_Z   4
loop_
 _symmetry_equiv_pos_site_id
 _symmetry_equiv_pos_as_xyz
  1  'x, y, z'
loop_
 _atom_site_type_symbol
 _atom_site_label
 _atom_site_symmetry_multiplicity
 _atom_site_fract_x
 _atom_site_fract_y
 _atom_site_fract_z
 _atom_site_occupancy
  V  V0  1  0.50000000  0.50000000  0.25893400  1
  V  V1  1  0.50000000  0.00000000  0.00893400  1
  V  V2  1  0.00000000  0.00000000  0.75893400  1
  V  V3  1  0.00000000  0.50000000  0.50893400  1
  Rh  Rh4  1  0.00000000  0.00000000  0.24661900  1
  Rh  Rh5  1  0.50000000  0.00000000  0.49661900  1
  Rh  Rh6  1  0.50000000  0.50000000  0.74661900  1
  Rh  Rh7  1  0.00000000  0.50000000  0.99661900  1
  O  O8  1  0.69222700  0.00000000  0.76695600  1
  O  O9  1  0.69955300  0.00000000  0.23026800  1
  O  O10  1  0.50000000  0.30777300  0.01695600  1
  O  O11  1  0.50000000  0.30044700  0.48026800  1
  O  O12  1  0.50000000  0.69222700  0.01695600  1
  O  O13  1  0.00000000  0.19955300  0.98026800  1
  O  O14  1  0.80777300  0.50000000  0.26695600  1
  O  O15  1  0.80044700  0.50000000  0.73026800  1
  O  O16  1  0.19222700  0.50000000  0.26695600  1
  O  O17  1  0.19955300  0.50000000  0.73026800  1
  O  O18  1  0.00000000  0.80777300  0.51695600  1
  O  O19  1  0.00000000  0.80044700  0.98026800  1
  O  O20  1  0.00000000  0.19222700  0.51695600  1
  O  O21  1  0.50000000  0.69955300  0.48026800  1
  O  O22  1  0.30777300  0.00000000  0.76695600  1
  O  O23  1  0.30044700  0.00000000  0.23026800  1
