# generated using pymatgen
data_Li6MnCoP2(CO7)2
_symmetry_space_group_name_H-M   'P 1'
_cell_length_a   5.01311790
_cell_length_b   6.51630226
_cell_length_c   8.54708531
_cell_angle_alpha   90.00000000
_cell_angle_beta   96.04559130
_cell_angle_gamma   90.00000000
_symmetry_Int_Tables_number   1
_chemical_formula_structural   Li6MnCoP2(CO7)2
_chemical_formula_sum   'Li6 Mn1 Co1 P2 C2 O14'
_cell_volume   277.65472384
_cell_formula_units_Z   1
loop_
 _symmetry_equiv_pos_site_id
 _symmetry_equiv_pos_as_xyz
  1  'x, y, z'
loop_
 _atom_site_type_symbol
 _atom_site_label
 _atom_site_symmetry_multiplicity
 _atom_site_fract_x
 _atom_site_fract_y
 _atom_site_fract_z
 _atom_site_occupancy
  Li  Li0  1  0.79067650  0.50000000  0.89767700  1
  Li  Li1  1  0.20867800  0.00000000  0.10490200  1
  Li  Li2  1  0.26516250  0.26834550  0.72890950  1
  Li  Li3  1  0.26516250  0.73165450  0.72890950  1
  Li  Li4  1  0.73392950  0.76980050  0.27188350  1
  Li  Li5  1  0.73392950  0.23019950  0.27188350  1
  Mn  Mn6  1  0.21959000  0.50000000  0.34021200  1
  Co  Co7  1  0.79019100  0.00000000  0.66603600  1
  P  P8  1  0.73020350  0.50000000  0.59162400  1
  P  P9  1  0.26480800  0.00000000  0.41224500  1
  C  C10  1  0.68231500  0.00000000  0.95827250  1
  C  C11  1  0.32292050  0.50000000  0.03607450  1
  O  O12  1  0.93157450  0.00000000  0.93194950  1
  O  O13  1  0.39052100  0.50000000  0.89337700  1
  O  O14  1  0.50180500  0.00000000  0.83551850  1
  O  O15  1  0.16381500  0.00000000  0.57643000  1
  O  O16  1  0.41668700  0.50000000  0.57722050  1
  O  O17  1  0.57878800  0.00000000  0.43300050  1
  O  O18  1  0.81842050  0.50000000  0.42405000  1
  O  O19  1  0.50925850  0.50000000  0.15560650  1
  O  O20  1  0.60959200  0.00000000  0.09988100  1
  O  O21  1  0.07492050  0.50000000  0.06415700  1
  O  O22  1  0.84013050  0.31315950  0.69295250  1
  O  O23  1  0.84013050  0.68684050  0.69295250  1
  O  O24  1  0.15846100  0.18442200  0.30774700  1
  O  O25  1  0.15846100  0.81557800  0.30774700  1
