# generated using pymatgen
data_V2CrFe3(PO4)6
_symmetry_space_group_name_H-M   'P 1'
_cell_length_a   8.64743183
_cell_length_b   8.64743183
_cell_length_c   20.39940923
_cell_angle_alpha   90.00000000
_cell_angle_beta   90.00000000
_cell_angle_gamma   120.00000000
_symmetry_Int_Tables_number   1
_chemical_formula_structural   V2CrFe3(PO4)6
_chemical_formula_sum   'V6 Cr3 Fe9 P18 O72'
_cell_volume   1321.05991964
_cell_formula_units_Z   3
loop_
 _symmetry_equiv_pos_site_id
 _symmetry_equiv_pos_as_xyz
  1  'x, y, z'
loop_
 _atom_site_type_symbol
 _atom_site_label
 _atom_site_symmetry_multiplicity
 _atom_site_fract_x
 _atom_site_fract_y
 _atom_site_fract_z
 _atom_site_occupancy
  V  V0  1  0.33333333  0.66666667  0.66534667  1
  V  V1  1  0.33333333  0.66666667  0.16707467  1
  V  V2  1  0.00000000  0.00000000  0.99868000  1
  V  V3  1  0.00000000  0.00000000  0.50040800  1
  V  V4  1  0.66666667  0.33333333  0.33201333  1
  V  V5  1  0.66666667  0.33333333  0.83374133  1
  Cr  Cr6  1  0.33333333  0.66666667  0.80890967  1
  Cr  Cr7  1  0.00000000  0.00000000  0.14224300  1
  Cr  Cr8  1  0.66666667  0.33333333  0.47557633  1
  Fe  Fe9  1  0.33333333  0.66666667  0.31360967  1
  Fe  Fe10  1  0.33333333  0.66666667  0.52072600  1
  Fe  Fe11  1  0.33333333  0.66666667  0.01977567  1
  Fe  Fe12  1  0.00000000  0.00000000  0.64694300  1
  Fe  Fe13  1  0.00000000  0.00000000  0.85405933  1
  Fe  Fe14  1  0.00000000  0.00000000  0.35310900  1
  Fe  Fe15  1  0.66666667  0.33333333  0.98027633  1
  Fe  Fe16  1  0.66666667  0.33333333  0.18739267  1
  Fe  Fe17  1  0.66666667  0.33333333  0.68644233  1
  P  P18  1  0.70393167  0.70513333  0.24926033  1
  P  P19  1  0.29486667  0.99879833  0.24926033  1
  P  P20  1  0.00120167  0.29606833  0.24926033  1
  P  P21  1  0.66605333  0.03507067  0.08415767  1
  P  P22  1  0.36901733  0.33394667  0.08415767  1
  P  P23  1  0.96492933  0.63098267  0.08415767  1
  P  P24  1  0.37059833  0.03846667  0.58259367  1
  P  P25  1  0.96153333  0.33213167  0.58259367  1
  P  P26  1  0.66786833  0.62940167  0.58259367  1
  P  P27  1  0.33272000  0.36840400  0.41749100  1
  P  P28  1  0.03568400  0.66728000  0.41749100  1
  P  P29  1  0.63159600  0.96431600  0.41749100  1
  P  P30  1  0.03726500  0.37180000  0.91592700  1
  P  P31  1  0.62820000  0.66546500  0.91592700  1
  P  P32  1  0.33453500  0.96273500  0.91592700  1
  P  P33  1  0.99938667  0.70173733  0.75082433  1
  P  P34  1  0.70235067  0.00061333  0.75082433  1
  P  P35  1  0.29826267  0.29764933  0.75082433  1
  O  O36  1  0.52670700  0.65472700  0.97852400  1
  O  O37  1  0.34527300  0.87198000  0.97852400  1
  O  O38  1  0.12802000  0.47329300  0.97852400  1
  O  O39  1  0.67763200  0.51275300  0.26059500  1
  O  O40  1  0.80576200  0.79768000  0.18788200  1
  O  O41  1  0.51169133  0.67842067  0.23886267  1
  O  O42  1  0.48724700  0.16487900  0.26059500  1
  O  O43  1  0.32157933  0.83327067  0.23886267  1
  O  O44  1  0.67672667  0.13899433  0.14566333  1
  O  O45  1  0.16672933  0.48830867  0.23886267  1
  O  O46  1  0.83285033  0.00994067  0.07318567  1
  O  O47  1  0.46226767  0.32327333  0.14566333  1
  O  O48  1  0.20232000  0.00808200  0.18788200  1
  O  O49  1  0.83512100  0.32236800  0.26059500  1
  O  O50  1  0.50074633  0.84424867  0.09479967  1
  O  O51  1  0.99191800  0.19423800  0.18788200  1
  O  O52  1  0.34350233  0.49925367  0.09479967  1
  O  O53  1  0.17709033  0.16714967  0.07318567  1
  O  O54  1  0.15575133  0.65649767  0.09479967  1
  O  O55  1  0.86100567  0.53773233  0.14566333  1
  O  O56  1  0.99005933  0.82290967  0.07318567  1
  O  O57  1  0.53828467  0.86266433  0.35526033  1
  O  O58  1  0.32437967  0.46171533  0.35526033  1
  O  O59  1  0.13733567  0.67562033  0.35526033  1
  O  O60  1  0.19337367  0.98806033  0.31185733  1
  O  O61  1  0.01193967  0.20531333  0.31185733  1
  O  O62  1  0.79468667  0.80662633  0.31185733  1
  O  O63  1  0.34429867  0.84608633  0.59392833  1
  O  O64  1  0.47242867  0.13101333  0.52121533  1
  O  O65  1  0.17835800  0.01175400  0.57219600  1
  O  O66  1  0.15391367  0.49821233  0.59392833  1
  O  O67  1  0.98824600  0.16660400  0.57219600  1
  O  O68  1  0.34339333  0.47232767  0.47899667  1
  O  O69  1  0.83339600  0.82164200  0.57219600  1
  O  O70  1  0.49951700  0.34327400  0.40651900  1
  O  O71  1  0.12893433  0.65660667  0.47899667  1
  O  O72  1  0.86898667  0.34141533  0.52121533  1
  O  O73  1  0.50178767  0.65570133  0.59392833  1
  O  O74  1  0.16741300  0.17758200  0.42813300  1
  O  O75  1  0.65858467  0.52757133  0.52121533  1
  O  O76  1  0.01016900  0.83258700  0.42813300  1
  O  O77  1  0.84375700  0.50048300  0.40651900  1
  O  O78  1  0.82241800  0.98983100  0.42813300  1
  O  O79  1  0.52767233  0.87106567  0.47899667  1
  O  O80  1  0.65672600  0.15624300  0.40651900  1
  O  O81  1  0.20495133  0.19599767  0.68859367  1
  O  O82  1  0.99104633  0.79504867  0.68859367  1
  O  O83  1  0.80400233  0.00895367  0.68859367  1
  O  O84  1  0.86004033  0.32139367  0.64519067  1
  O  O85  1  0.67860633  0.53864667  0.64519067  1
  O  O86  1  0.46135333  0.13995967  0.64519067  1
  O  O87  1  0.01096533  0.17941967  0.92726167  1
  O  O88  1  0.13909533  0.46434667  0.85454867  1
  O  O89  1  0.84502467  0.34508733  0.90552933  1
  O  O90  1  0.82058033  0.83154567  0.92726167  1
  O  O91  1  0.65491267  0.49993733  0.90552933  1
  O  O92  1  0.01006000  0.80566100  0.81233000  1
  O  O93  1  0.50006267  0.15497533  0.90552933  1
  O  O94  1  0.16618367  0.67660733  0.73985233  1
  O  O95  1  0.79560100  0.98994000  0.81233000  1
  O  O96  1  0.53565333  0.67474867  0.85454867  1
  O  O97  1  0.16845433  0.98903467  0.92726167  1
  O  O98  1  0.83407967  0.51091533  0.76146633  1
  O  O99  1  0.32525133  0.86090467  0.85454867  1
  O  O100  1  0.67683567  0.16592033  0.76146633  1
  O  O101  1  0.51042367  0.83381633  0.73985233  1
  O  O102  1  0.48908467  0.32316433  0.76146633  1
  O  O103  1  0.19433900  0.20439900  0.81233000  1
  O  O104  1  0.32339267  0.48957633  0.73985233  1
  O  O105  1  0.87161800  0.52933100  0.02192700  1
  O  O106  1  0.65771300  0.12838200  0.02192700  1
  O  O107  1  0.47066900  0.34228700  0.02192700  1
