# generated using pymatgen
data_LiCoCuO4
_symmetry_space_group_name_H-M   'P 1'
_cell_length_a   5.64001269
_cell_length_b   5.75396065
_cell_length_c   5.77836156
_cell_angle_alpha   60.50203551
_cell_angle_beta   61.22382235
_cell_angle_gamma   61.19308584
_symmetry_Int_Tables_number   1
_chemical_formula_structural   LiCoCuO4
_chemical_formula_sum   'Li2 Co2 Cu2 O8'
_cell_volume   135.49119981
_cell_formula_units_Z   2
loop_
 _symmetry_equiv_pos_site_id
 _symmetry_equiv_pos_as_xyz
  1  'x, y, z'
loop_
 _atom_site_type_symbol
 _atom_site_label
 _atom_site_symmetry_multiplicity
 _atom_site_fract_x
 _atom_site_fract_y
 _atom_site_fract_z
 _atom_site_occupancy
  Li  Li0  1  0.50000000  0.50000000  0.00000000  1
  Li  Li1  1  0.50000000  0.50000000  0.50000000  1
  Co  Co2  1  0.00000000  0.00000000  0.50000000  1
  Co  Co3  1  0.50000000  0.00000000  0.50000000  1
  Cu  Cu4  1  0.00000000  0.50000000  0.50000000  1
  Cu  Cu5  1  0.00000000  0.00000000  0.00000000  1
  O  O6  1  0.25219000  0.24114600  0.71353100  1
  O  O7  1  0.73965900  0.78964700  0.71377500  1
  O  O8  1  0.24573600  0.78218200  0.73186900  1
  O  O9  1  0.21061300  0.75663300  0.28065700  1
  O  O10  1  0.78938700  0.24336700  0.71934300  1
  O  O11  1  0.75426400  0.21781800  0.26813100  1
  O  O12  1  0.26034100  0.21035300  0.28622500  1
  O  O13  1  0.74781000  0.75885400  0.28646900  1
