# generated using pymatgen
data_LiMnF6
_symmetry_space_group_name_H-M   'P 1'
_cell_length_a   5.05804620
_cell_length_b   5.05804620
_cell_length_c   13.58917526
_cell_angle_alpha   90.00000000
_cell_angle_beta   90.00000000
_cell_angle_gamma   120.00000000
_symmetry_Int_Tables_number   1
_chemical_formula_structural   LiMnF6
_chemical_formula_sum   'Li3 Mn3 F18'
_cell_volume   301.08513514
_cell_formula_units_Z   3
loop_
 _symmetry_equiv_pos_site_id
 _symmetry_equiv_pos_as_xyz
  1  'x, y, z'
loop_
 _atom_site_type_symbol
 _atom_site_label
 _atom_site_symmetry_multiplicity
 _atom_site_fract_x
 _atom_site_fract_y
 _atom_site_fract_z
 _atom_site_occupancy
  Li  Li0  1  0.33333333  0.66666667  0.16666667  1
  Li  Li1  1  1.00000000  0.00000000  0.50000000  1
  Li  Li2  1  0.66666667  0.33333333  0.83333333  1
  Mn  Mn3  1  0.00000000  0.00000000  0.00000000  1
  Mn  Mn4  1  0.66666667  0.33333333  0.33333333  1
  Mn  Mn5  1  0.33333333  0.66666667  0.66666667  1
  F  F6  1  0.27733667  0.96740733  0.07773633  1
  F  F7  1  0.63407400  0.02340400  0.25559700  1
  F  F8  1  0.97659600  0.61067000  0.25559700  1
  F  F9  1  0.69007067  0.72266333  0.07773633  1
  F  F10  1  0.03259267  0.30992933  0.07773633  1
  F  F11  1  0.38933000  0.36592600  0.25559700  1
  F  F12  1  0.94400333  0.30074067  0.41106967  1
  F  F13  1  0.30074067  0.35673733  0.58893033  1
  F  F14  1  0.64326267  0.94400333  0.58893033  1
  F  F15  1  0.35673733  0.05599667  0.41106967  1
  F  F16  1  0.69925933  0.64326267  0.41106967  1
  F  F17  1  0.05599667  0.69925933  0.58893033  1
  F  F18  1  0.61067000  0.63407400  0.74440300  1
  F  F19  1  0.96740733  0.69007067  0.92226367  1
  F  F20  1  0.30992933  0.27733667  0.92226367  1
  F  F21  1  0.02340400  0.38933000  0.74440300  1
  F  F22  1  0.36592600  0.97659600  0.74440300  1
  F  F23  1  0.72266333  0.03259267  0.92226367  1
