# generated using pymatgen
data_ZrCrO4
_symmetry_space_group_name_H-M   'P 1'
_cell_length_a   4.76026501
_cell_length_b   4.93879501
_cell_length_c   11.85372402
_cell_angle_alpha   90.00000000
_cell_angle_beta   90.00000000
_cell_angle_gamma   90.00000000
_symmetry_Int_Tables_number   1
_chemical_formula_structural   ZrCrO4
_chemical_formula_sum   'Zr4 Cr4 O16'
_cell_volume   278.68073209
_cell_formula_units_Z   4
loop_
 _symmetry_equiv_pos_site_id
 _symmetry_equiv_pos_as_xyz
  1  'x, y, z'
loop_
 _atom_site_type_symbol
 _atom_site_label
 _atom_site_symmetry_multiplicity
 _atom_site_fract_x
 _atom_site_fract_y
 _atom_site_fract_z
 _atom_site_occupancy
  Zr  Zr0  1  0.50000000  0.25000000  0.67133300  1
  Zr  Zr1  1  0.50000000  0.75000000  0.32866700  1
  Zr  Zr2  1  0.00000000  0.25000000  0.17133300  1
  Zr  Zr3  1  0.00000000  0.75000000  0.82866700  1
  Cr  Cr4  1  0.50000000  0.25000000  0.93350200  1
  Cr  Cr5  1  0.50000000  0.75000000  0.06649800  1
  Cr  Cr6  1  0.00000000  0.75000000  0.56649800  1
  Cr  Cr7  1  0.00000000  0.25000000  0.43350200  1
  O  O8  1  0.72145050  0.41004350  0.81569100  1
  O  O9  1  0.72145050  0.91004350  0.18430900  1
  O  O10  1  0.77619350  0.43182350  0.55481700  1
  O  O11  1  0.77619350  0.93182350  0.44518300  1
  O  O12  1  0.72380650  0.93182350  0.94518300  1
  O  O13  1  0.72380650  0.43182350  0.05481700  1
  O  O14  1  0.77854950  0.91004350  0.68430900  1
  O  O15  1  0.77854950  0.41004350  0.31569100  1
  O  O16  1  0.22145050  0.58995650  0.68430900  1
  O  O17  1  0.22145050  0.08995650  0.31569100  1
  O  O18  1  0.27619350  0.56817650  0.94518300  1
  O  O19  1  0.27619350  0.06817650  0.05481700  1
  O  O20  1  0.22380650  0.06817650  0.55481700  1
  O  O21  1  0.22380650  0.56817650  0.44518300  1
  O  O22  1  0.27854950  0.58995650  0.18430900  1
  O  O23  1  0.27854950  0.08995650  0.81569100  1
