# generated using pymatgen
data_Li2Co3SbO8
_symmetry_space_group_name_H-M   'P 1'
_cell_length_a   5.78967567
_cell_length_b   5.78967567
_cell_length_c   14.53288712
_cell_angle_alpha   90.00000000
_cell_angle_beta   90.00000000
_cell_angle_gamma   120.00000000
_symmetry_Int_Tables_number   1
_chemical_formula_structural   Li2Co3SbO8
_chemical_formula_sum   'Li6 Co9 Sb3 O24'
_cell_volume   421.88200661
_cell_formula_units_Z   3
loop_
 _symmetry_equiv_pos_site_id
 _symmetry_equiv_pos_as_xyz
  1  'x, y, z'
loop_
 _atom_site_type_symbol
 _atom_site_label
 _atom_site_symmetry_multiplicity
 _atom_site_fract_x
 _atom_site_fract_y
 _atom_site_fract_z
 _atom_site_occupancy
  Li  Li0  1  0.00000000  0.00000000  0.12605800  1
  Li  Li1  1  0.66666667  0.33333333  0.20727533  1
  Li  Li2  1  0.66666667  0.33333333  0.45939133  1
  Li  Li3  1  0.33333333  0.66666667  0.54060867  1
  Li  Li4  1  0.33333333  0.66666667  0.79272467  1
  Li  Li5  1  0.00000000  0.00000000  0.87394200  1
  Co  Co6  1  0.50000000  0.50000000  0.00000000  1
  Co  Co7  1  0.50000000  0.00000000  0.00000000  1
  Co  Co8  1  0.00000000  0.50000000  0.00000000  1
  Co  Co9  1  0.16666667  0.83333333  0.33333333  1
  Co  Co10  1  0.16666667  0.33333333  0.33333333  1
  Co  Co11  1  0.66666667  0.83333333  0.33333333  1
  Co  Co12  1  0.83333333  0.16666667  0.66666667  1
  Co  Co13  1  0.83333333  0.66666667  0.66666667  1
  Co  Co14  1  0.33333333  0.16666667  0.66666667  1
  Sb  Sb15  1  0.33333333  0.66666667  0.16666667  1
  Sb  Sb16  1  1.00000000  1.00000000  0.50000000  1
  Sb  Sb17  1  0.66666667  0.33333333  0.83333333  1
  O  O18  1  0.18076600  0.36153200  0.07606700  1
  O  O19  1  0.18076600  0.81923400  0.07606700  1
  O  O20  1  0.66666667  0.33333333  0.06731133  1
  O  O21  1  0.63846800  0.81923400  0.07606700  1
  O  O22  1  0.02819867  0.51409933  0.25726633  1
  O  O23  1  0.00000000  0.00000000  0.26602200  1
  O  O24  1  0.48590067  0.51409933  0.25726633  1
  O  O25  1  0.48590067  0.97180133  0.25726633  1
  O  O26  1  0.84743267  0.69486533  0.40940033  1
  O  O27  1  0.84743267  0.15256733  0.40940033  1
  O  O28  1  0.33333333  0.66666667  0.40064467  1
  O  O29  1  0.30513467  0.15256733  0.40940033  1
  O  O30  1  0.69486533  0.84743267  0.59059967  1
  O  O31  1  0.66666667  0.33333333  0.59935533  1
  O  O32  1  0.15256733  0.84743267  0.59059967  1
  O  O33  1  0.15256733  0.30513467  0.59059967  1
  O  O34  1  0.51409933  0.02819867  0.74273367  1
  O  O35  1  0.51409933  0.48590067  0.74273367  1
  O  O36  1  0.00000000  0.00000000  0.73397800  1
  O  O37  1  0.97180133  0.48590067  0.74273367  1
  O  O38  1  0.36153200  0.18076600  0.92393300  1
  O  O39  1  0.33333333  0.66666667  0.93268867  1
  O  O40  1  0.81923400  0.18076600  0.92393300  1
  O  O41  1  0.81923400  0.63846800  0.92393300  1
