# generated using pymatgen
data_Li2Ti3BiO8
_symmetry_space_group_name_H-M   'P 1'
_cell_length_a   6.00948018
_cell_length_b   6.00948018
_cell_length_c   17.14649692
_cell_angle_alpha   90.00000000
_cell_angle_beta   90.00000000
_cell_angle_gamma   120.00000000
_symmetry_Int_Tables_number   1
_chemical_formula_structural   Li2Ti3BiO8
_chemical_formula_sum   'Li6 Ti9 Bi3 O24'
_cell_volume   536.26549194
_cell_formula_units_Z   3
loop_
 _symmetry_equiv_pos_site_id
 _symmetry_equiv_pos_as_xyz
  1  'x, y, z'
loop_
 _atom_site_type_symbol
 _atom_site_label
 _atom_site_symmetry_multiplicity
 _atom_site_fract_x
 _atom_site_fract_y
 _atom_site_fract_z
 _atom_site_occupancy
  Li  Li0  1  0.66666667  0.33333333  0.23919033  1
  Li  Li1  1  0.00000000  0.00000000  0.09414300  1
  Li  Li2  1  0.33333333  0.66666667  0.57252367  1
  Li  Li3  1  0.66666667  0.33333333  0.42747633  1
  Li  Li4  1  0.00000000  0.00000000  0.90585700  1
  Li  Li5  1  0.33333333  0.66666667  0.76080967  1
  Ti  Ti6  1  0.50000000  0.00000000  0.00000000  1
  Ti  Ti7  1  0.50000000  0.50000000  0.00000000  1
  Ti  Ti8  1  0.00000000  0.50000000  0.00000000  1
  Ti  Ti9  1  0.16666667  0.33333333  0.33333333  1
  Ti  Ti10  1  0.16666667  0.83333333  0.33333333  1
  Ti  Ti11  1  0.66666667  0.83333333  0.33333333  1
  Ti  Ti12  1  0.83333333  0.66666667  0.66666667  1
  Ti  Ti13  1  0.83333333  0.16666667  0.66666667  1
  Ti  Ti14  1  0.33333333  0.16666667  0.66666667  1
  Bi  Bi15  1  0.33333333  0.66666667  0.16666667  1
  Bi  Bi16  1  1.00000000  1.00000000  0.50000000  1
  Bi  Bi17  1  0.66666667  0.33333333  0.83333333  1
  O  O18  1  0.48862000  0.51138000  0.26725000  1
  O  O19  1  0.48862000  0.97724000  0.26725000  1
  O  O20  1  0.00000000  0.00000000  0.27345500  1
  O  O21  1  0.02276000  0.51138000  0.26725000  1
  O  O22  1  0.64390667  0.82195333  0.06608333  1
  O  O23  1  0.66666667  0.33333333  0.05987833  1
  O  O24  1  0.17804667  0.35609333  0.06608333  1
  O  O25  1  0.17804667  0.82195333  0.06608333  1
  O  O26  1  0.15528667  0.84471333  0.60058333  1
  O  O27  1  0.15528667  0.31057333  0.60058333  1
  O  O28  1  0.66666667  0.33333333  0.60678833  1
  O  O29  1  0.68942667  0.84471333  0.60058333  1
  O  O30  1  0.31057333  0.15528667  0.39941667  1
  O  O31  1  0.33333333  0.66666667  0.39321167  1
  O  O32  1  0.84471333  0.68942667  0.39941667  1
  O  O33  1  0.84471333  0.15528667  0.39941667  1
  O  O34  1  0.82195333  0.17804667  0.93391667  1
  O  O35  1  0.82195333  0.64390667  0.93391667  1
  O  O36  1  0.33333333  0.66666667  0.94012167  1
  O  O37  1  0.35609333  0.17804667  0.93391667  1
  O  O38  1  0.97724000  0.48862000  0.73275000  1
  O  O39  1  0.00000000  0.00000000  0.72654500  1
  O  O40  1  0.51138000  0.02276000  0.73275000  1
  O  O41  1  0.51138000  0.48862000  0.73275000  1
