# generated using pymatgen
data_Mn2OF3
_symmetry_space_group_name_H-M   'P 1'
_cell_length_a   9.75741800
_cell_length_b   6.32294200
_cell_length_c   10.70986632
_cell_angle_alpha   90.00000000
_cell_angle_beta   114.83201229
_cell_angle_gamma   90.00000000
_symmetry_Int_Tables_number   1
_chemical_formula_structural   Mn2OF3
_chemical_formula_sum   'Mn16 O8 F24'
_cell_volume   599.66038646
_cell_formula_units_Z   8
loop_
 _symmetry_equiv_pos_site_id
 _symmetry_equiv_pos_as_xyz
  1  'x, y, z'
loop_
 _atom_site_type_symbol
 _atom_site_label
 _atom_site_symmetry_multiplicity
 _atom_site_fract_x
 _atom_site_fract_y
 _atom_site_fract_z
 _atom_site_occupancy
  Mn  Mn0  1  0.76565900  0.50000000  0.98281300  1
  Mn  Mn1  1  0.62614800  0.74467900  0.25011800  1
  Mn  Mn2  1  0.87385200  0.75532100  0.74988200  1
  Mn  Mn3  1  0.73434100  0.00000000  0.01718700  1
  Mn  Mn4  1  0.00000000  0.00000000  0.50000000  1
  Mn  Mn5  1  0.50000000  0.00000000  0.50000000  1
  Mn  Mn6  1  0.62614800  0.25532100  0.25011800  1
  Mn  Mn7  1  0.87385200  0.24467900  0.74988200  1
  Mn  Mn8  1  0.26565900  0.00000000  0.98281300  1
  Mn  Mn9  1  0.12614800  0.24467900  0.25011800  1
  Mn  Mn10  1  0.37385200  0.25532100  0.74988200  1
  Mn  Mn11  1  0.23434100  0.50000000  0.01718700  1
  Mn  Mn12  1  0.50000000  0.50000000  0.50000000  1
  Mn  Mn13  1  0.00000000  0.50000000  0.50000000  1
  Mn  Mn14  1  0.12614800  0.75532100  0.25011800  1
  Mn  Mn15  1  0.37385200  0.74467900  0.74988200  1
  O  O16  1  0.58446100  0.50000000  0.33849800  1
  O  O17  1  0.91553900  0.00000000  0.66150200  1
  O  O18  1  0.66467000  0.00000000  0.16507100  1
  O  O19  1  0.83533000  0.50000000  0.83492900  1
  O  O20  1  0.08446100  0.00000000  0.33849800  1
  O  O21  1  0.41553900  0.50000000  0.66150200  1
  O  O22  1  0.16467000  0.50000000  0.16507100  1
  O  O23  1  0.33533000  0.00000000  0.83492900  1
  F  F24  1  0.85089800  0.75074000  0.39793900  1
  F  F25  1  0.18526900  0.00000000  0.14204600  1
  F  F26  1  0.57836200  0.00000000  0.35251000  1
  F  F27  1  0.31473100  0.50000000  0.85795400  1
  F  F28  1  0.64910200  0.74926000  0.60206100  1
  F  F29  1  0.40448150  0.25395350  0.10113700  1
  F  F30  1  0.40448150  0.74604650  0.10113700  1
  F  F31  1  0.35089800  0.74926000  0.39793900  1
  F  F32  1  0.09551850  0.24604650  0.89886300  1
  F  F33  1  0.09551850  0.75395350  0.89886300  1
  F  F34  1  0.92163800  0.50000000  0.64749000  1
  F  F35  1  0.14910200  0.75074000  0.60206100  1
  F  F36  1  0.35089800  0.25074000  0.39793900  1
  F  F37  1  0.68526900  0.50000000  0.14204600  1
  F  F38  1  0.07836200  0.50000000  0.35251000  1
  F  F39  1  0.81473100  0.00000000  0.85795400  1
  F  F40  1  0.14910200  0.24926000  0.60206100  1
  F  F41  1  0.90448150  0.75395350  0.10113700  1
  F  F42  1  0.90448150  0.24604650  0.10113700  1
  F  F43  1  0.85089800  0.24926000  0.39793900  1
  F  F44  1  0.59551850  0.74604650  0.89886300  1
  F  F45  1  0.59551850  0.25395350  0.89886300  1
  F  F46  1  0.42163800  0.00000000  0.64749000  1
  F  F47  1  0.64910200  0.25074000  0.60206100  1
