# generated using pymatgen
data_Li4Ti3Fe3(CoO8)2
_symmetry_space_group_name_H-M   'P 1'
_cell_length_a   10.26096000
_cell_length_b   5.95805800
_cell_length_c   9.62021177
_cell_angle_alpha   90.00000000
_cell_angle_beta   90.80638443
_cell_angle_gamma   90.00000000
_symmetry_Int_Tables_number   1
_chemical_formula_structural   Li4Ti3Fe3(CoO8)2
_chemical_formula_sum   'Li8 Ti6 Fe6 Co4 O32'
_cell_volume   588.07719680
_cell_formula_units_Z   2
loop_
 _symmetry_equiv_pos_site_id
 _symmetry_equiv_pos_as_xyz
  1  'x, y, z'
loop_
 _atom_site_type_symbol
 _atom_site_label
 _atom_site_symmetry_multiplicity
 _atom_site_fract_x
 _atom_site_fract_y
 _atom_site_fract_z
 _atom_site_occupancy
  Li  Li0  1  0.33531800  0.00000000  0.89212300  1
  Li  Li1  1  0.00092500  0.00000000  0.99358900  1
  Li  Li2  1  0.99785900  0.00000000  0.49696800  1
  Li  Li3  1  0.66900400  0.00000000  0.39610800  1
  Li  Li4  1  0.83531800  0.50000000  0.89212300  1
  Li  Li5  1  0.50092500  0.50000000  0.99358900  1
  Li  Li6  1  0.49785900  0.50000000  0.49696800  1
  Li  Li7  1  0.16900400  0.50000000  0.39610800  1
  Ti  Ti8  1  0.41620850  0.75571450  0.21424200  1
  Ti  Ti9  1  0.41620850  0.24428550  0.21424200  1
  Ti  Ti10  1  0.82868700  0.00000000  0.71749200  1
  Ti  Ti11  1  0.91620850  0.25571450  0.21424200  1
  Ti  Ti12  1  0.91620850  0.74428550  0.21424200  1
  Ti  Ti13  1  0.32868700  0.50000000  0.71749200  1
  Fe  Fe14  1  0.16951100  0.00000000  0.21617500  1
  Fe  Fe15  1  0.58499350  0.75522750  0.71151500  1
  Fe  Fe16  1  0.58499350  0.24477250  0.71151500  1
  Fe  Fe17  1  0.66951100  0.50000000  0.21617500  1
  Fe  Fe18  1  0.08499350  0.25522750  0.71151500  1
  Fe  Fe19  1  0.08499350  0.74477250  0.71151500  1
  Co  Co20  1  0.32433600  0.00000000  0.49159800  1
  Co  Co21  1  0.66289500  0.00000000  0.98828200  1
  Co  Co22  1  0.82433600  0.50000000  0.49159800  1
  Co  Co23  1  0.16289500  0.50000000  0.98828200  1
  O  O24  1  0.41706750  0.74919750  0.60061700  1
  O  O25  1  0.48170100  0.00000000  0.33289000  1
  O  O26  1  0.33591400  0.00000000  0.10394600  1
  O  O27  1  0.99664900  0.00000000  0.31203800  1
  O  O28  1  0.00008100  0.00000000  0.80651500  1
  O  O29  1  0.41706750  0.25080250  0.60061700  1
  O  O30  1  0.26494300  0.77944900  0.34117700  1
  O  O31  1  0.26494300  0.22055100  0.34117700  1
  O  O32  1  0.83082000  0.00000000  0.10372400  1
  O  O33  1  0.16624900  0.00000000  0.59392900  1
  O  O34  1  0.74428050  0.78020350  0.83679300  1
  O  O35  1  0.74428050  0.21979650  0.83679300  1
  O  O36  1  0.67114500  0.00000000  0.60142600  1
  O  O37  1  0.57632300  0.74739500  0.10447400  1
  O  O38  1  0.52402800  0.00000000  0.84370500  1
  O  O39  1  0.57632300  0.25260500  0.10447400  1
  O  O40  1  0.91706750  0.24919750  0.60061700  1
  O  O41  1  0.98170100  0.50000000  0.33289000  1
  O  O42  1  0.83591400  0.50000000  0.10394600  1
  O  O43  1  0.49664900  0.50000000  0.31203800  1
  O  O44  1  0.50008100  0.50000000  0.80651500  1
  O  O45  1  0.91706750  0.75080250  0.60061700  1
  O  O46  1  0.76494300  0.27944900  0.34117700  1
  O  O47  1  0.76494300  0.72055100  0.34117700  1
  O  O48  1  0.33082000  0.50000000  0.10372400  1
  O  O49  1  0.66624900  0.50000000  0.59392900  1
  O  O50  1  0.24428050  0.28020350  0.83679300  1
  O  O51  1  0.24428050  0.71979650  0.83679300  1
  O  O52  1  0.17114500  0.50000000  0.60142600  1
  O  O53  1  0.07632300  0.24739500  0.10447400  1
  O  O54  1  0.02402800  0.50000000  0.84370500  1
  O  O55  1  0.07632300  0.75260500  0.10447400  1
