# generated using pymatgen
data_Li2VBO4
_symmetry_space_group_name_H-M   'P 1'
_cell_length_a   4.75028439
_cell_length_b   5.18346700
_cell_length_c   7.84966227
_cell_angle_alpha   90.00000000
_cell_angle_beta   127.25108433
_cell_angle_gamma   90.00000000
_symmetry_Int_Tables_number   1
_chemical_formula_structural   Li2VBO4
_chemical_formula_sum   'Li4 V2 B2 O8'
_cell_volume   153.85047137
_cell_formula_units_Z   2
loop_
 _symmetry_equiv_pos_site_id
 _symmetry_equiv_pos_as_xyz
  1  'x, y, z'
loop_
 _atom_site_type_symbol
 _atom_site_label
 _atom_site_symmetry_multiplicity
 _atom_site_fract_x
 _atom_site_fract_y
 _atom_site_fract_z
 _atom_site_occupancy
  Li  Li0  1  0.24548300  0.14803600  0.75311700  1
  Li  Li1  1  0.50003900  0.30971700  0.50445800  1
  Li  Li2  1  0.24548300  0.85196400  0.25311700  1
  Li  Li3  1  0.50003900  0.69028300  0.00445800  1
  V  V4  1  0.98475500  0.32429300  0.99431600  1
  V  V5  1  0.98475500  0.67570700  0.49431600  1
  B  B6  1  0.75844900  0.82096100  0.75232400  1
  B  B7  1  0.75844900  0.17903900  0.25232400  1
  O  O8  1  0.85513600  0.68586200  0.95148900  1
  O  O9  1  0.66767200  0.09691100  0.75710500  1
  O  O10  1  0.06871800  0.80800400  0.74922400  1
  O  O11  1  0.45181600  0.68985500  0.55159400  1
  O  O12  1  0.85513600  0.31413800  0.45148900  1
  O  O13  1  0.66767200  0.90308900  0.25710500  1
  O  O14  1  0.06871800  0.19199600  0.24922400  1
  O  O15  1  0.45181600  0.31014500  0.05159400  1
