# generated using pymatgen
data_Mn3Ni2P6WO24
_symmetry_space_group_name_H-M   'P 1'
_cell_length_a   8.71334590
_cell_length_b   8.71334590
_cell_length_c   20.91435135
_cell_angle_alpha   90.00000000
_cell_angle_beta   90.00000000
_cell_angle_gamma   120.00000000
_symmetry_Int_Tables_number   1
_chemical_formula_structural   Mn3Ni2P6WO24
_chemical_formula_sum   'Mn9 Ni6 P18 W3 O72'
_cell_volume   1375.13375011
_cell_formula_units_Z   3
loop_
 _symmetry_equiv_pos_site_id
 _symmetry_equiv_pos_as_xyz
  1  'x, y, z'
loop_
 _atom_site_type_symbol
 _atom_site_label
 _atom_site_symmetry_multiplicity
 _atom_site_fract_x
 _atom_site_fract_y
 _atom_site_fract_z
 _atom_site_occupancy
  Mn  Mn0  1  0.33333333  0.66666667  0.02385167  1
  Mn  Mn1  1  0.33333333  0.66666667  0.81227467  1
  Mn  Mn2  1  0.33333333  0.66666667  0.31001167  1
  Mn  Mn3  1  0.00000000  0.00000000  0.35718500  1
  Mn  Mn4  1  0.00000000  0.00000000  0.14560800  1
  Mn  Mn5  1  0.00000000  0.00000000  0.64334500  1
  Mn  Mn6  1  0.66666667  0.33333333  0.69051833  1
  Mn  Mn7  1  0.66666667  0.33333333  0.47894133  1
  Mn  Mn8  1  0.66666667  0.33333333  0.97667833  1
  Ni  Ni9  1  0.33333333  0.66666667  0.67432267  1
  Ni  Ni10  1  0.33333333  0.66666667  0.16778967  1
  Ni  Ni11  1  0.00000000  0.00000000  0.00765600  1
  Ni  Ni12  1  0.00000000  0.00000000  0.50112300  1
  Ni  Ni13  1  0.66666667  0.33333333  0.34098933  1
  Ni  Ni14  1  0.66666667  0.33333333  0.83445633  1
  P  P15  1  0.36815067  0.03394033  0.08164633  1
  P  P16  1  0.66578967  0.63184933  0.08164633  1
  P  P17  1  0.96605967  0.33421033  0.08164633  1
  P  P18  1  0.70137333  0.99214067  0.24940767  1
  P  P19  1  0.00785933  0.70923267  0.24940767  1
  P  P20  1  0.29076733  0.29862667  0.24940767  1
  P  P21  1  0.03481733  0.36727367  0.41497967  1
  P  P22  1  0.33245633  0.96518267  0.41497967  1
  P  P23  1  0.63272633  0.66754367  0.41497967  1
  P  P24  1  0.36804000  0.32547400  0.58274100  1
  P  P25  1  0.67452600  0.04256600  0.58274100  1
  P  P26  1  0.95743400  0.63196000  0.58274100  1
  P  P27  1  0.70148400  0.70060700  0.74831300  1
  P  P28  1  0.99912300  0.29851600  0.74831300  1
  P  P29  1  0.29939300  0.00087700  0.74831300  1
  P  P30  1  0.03470667  0.65880733  0.91607433  1
  P  P31  1  0.34119267  0.37589933  0.91607433  1
  P  P32  1  0.62410067  0.96529333  0.91607433  1
  W  W33  1  0.33333333  0.66666667  0.52427167  1
  W  W34  1  0.00000000  0.00000000  0.85760500  1
  W  W35  1  0.66666667  0.33333333  0.19093833  1
  O  O36  1  0.32542467  0.86317633  0.35584033  1
  O  O37  1  0.53775167  0.67457533  0.35584033  1
  O  O38  1  0.13682367  0.46224833  0.35584033  1
  O  O39  1  0.18278033  0.01743267  0.07599367  1
  O  O40  1  0.14160133  0.49200367  0.47523667  1
  O  O41  1  0.35683100  0.85769400  0.09803100  1
  O  O42  1  0.83465233  0.81721967  0.07599367  1
  O  O43  1  0.50086300  0.64316900  0.09803100  1
  O  O44  1  0.80001833  0.00183467  0.18830967  1
  O  O45  1  0.14230600  0.49913700  0.09803100  1
  O  O46  1  0.67283067  0.16467133  0.25267733  1
  O  O47  1  0.99816533  0.79818367  0.18830967  1
  O  O48  1  0.35040233  0.85839867  0.47523667  1
  O  O49  1  0.98256733  0.16534767  0.07599367  1
  O  O50  1  0.51156800  0.83321100  0.24089300  1
  O  O51  1  0.50799633  0.64959767  0.47523667  1
  O  O52  1  0.16678900  0.67835700  0.24089300  1
  O  O53  1  0.83532867  0.50815933  0.25267733  1
  O  O54  1  0.32164300  0.48843200  0.24089300  1
  O  O55  1  0.20181633  0.19998167  0.18830967  1
  O  O56  1  0.49184067  0.32716933  0.25267733  1
  O  O57  1  0.54309667  0.87282633  0.97778133  1
  O  O58  1  0.12717367  0.67027033  0.97778133  1
  O  O59  1  0.32972967  0.45690333  0.97778133  1
  O  O60  1  0.99209133  0.19650967  0.68917367  1
  O  O61  1  0.20441833  0.00790867  0.68917367  1
  O  O62  1  0.80349033  0.79558167  0.68917367  1
  O  O63  1  0.84944700  0.35076600  0.40932700  1
  O  O64  1  0.80826800  0.82533700  0.80857000  1
  O  O65  1  0.02349767  0.19102733  0.43136433  1
  O  O66  1  0.50131900  0.15055300  0.40932700  1
  O  O67  1  0.16752967  0.97650233  0.43136433  1
  O  O68  1  0.46668500  0.33516800  0.52164300  1
  O  O69  1  0.80897267  0.83247033  0.43136433  1
  O  O70  1  0.33949733  0.49800467  0.58601067  1
  O  O71  1  0.66483200  0.13151700  0.52164300  1
  O  O72  1  0.01706900  0.19173200  0.80857000  1
  O  O73  1  0.64923400  0.49868100  0.40932700  1
  O  O74  1  0.17823467  0.16654433  0.57422633  1
  O  O75  1  0.17466300  0.98293100  0.80857000  1
  O  O76  1  0.83345567  0.01169033  0.57422633  1
  O  O77  1  0.50199533  0.84149267  0.58601067  1
  O  O78  1  0.98830967  0.82176533  0.57422633  1
  O  O79  1  0.86848300  0.53331500  0.52164300  1
  O  O80  1  0.15850733  0.66050267  0.58601067  1
  O  O81  1  0.20976333  0.20615967  0.31111467  1
  O  O82  1  0.79384033  0.00360367  0.31111467  1
  O  O83  1  0.99639633  0.79023667  0.31111467  1
  O  O84  1  0.65875800  0.52984300  0.02250700  1
  O  O85  1  0.87108500  0.34124200  0.02250700  1
  O  O86  1  0.47015700  0.12891500  0.02250700  1
  O  O87  1  0.51611367  0.68409933  0.74266033  1
  O  O88  1  0.47493467  0.15867033  0.14190333  1
  O  O89  1  0.69016433  0.52436067  0.76469767  1
  O  O90  1  0.16798567  0.48388633  0.74266033  1
  O  O91  1  0.83419633  0.30983567  0.76469767  1
  O  O92  1  0.13335167  0.66850133  0.85497633  1
  O  O93  1  0.47563933  0.16580367  0.76469767  1
  O  O94  1  0.00616400  0.83133800  0.91934400  1
  O  O95  1  0.33149867  0.46485033  0.85497633  1
  O  O96  1  0.68373567  0.52506533  0.14190333  1
  O  O97  1  0.31590067  0.83201433  0.74266033  1
  O  O98  1  0.84490133  0.49987767  0.90755967  1
  O  O99  1  0.84132967  0.31626433  0.14190333  1
  O  O100  1  0.50012233  0.34502367  0.90755967  1
  O  O101  1  0.16866200  0.17482600  0.91934400  1
  O  O102  1  0.65497633  0.15509867  0.90755967  1
  O  O103  1  0.53514967  0.86664833  0.85497633  1
  O  O104  1  0.82517400  0.99383600  0.91934400  1
  O  O105  1  0.87643000  0.53949300  0.64444800  1
  O  O106  1  0.46050700  0.33693700  0.64444800  1
  O  O107  1  0.66306300  0.12357000  0.64444800  1
