# generated using pymatgen
data_Li2Mn4O5F3
_symmetry_space_group_name_H-M   'P 1'
_cell_length_a   10.68456400
_cell_length_b   6.00366000
_cell_length_c   5.89823919
_cell_angle_alpha   90.00000000
_cell_angle_beta   123.15226653
_cell_angle_gamma   90.00000000
_symmetry_Int_Tables_number   1
_chemical_formula_structural   Li2Mn4O5F3
_chemical_formula_sum   'Li4 Mn8 O10 F6'
_cell_volume   316.76338348
_cell_formula_units_Z   2
loop_
 _symmetry_equiv_pos_site_id
 _symmetry_equiv_pos_as_xyz
  1  'x, y, z'
loop_
 _atom_site_type_symbol
 _atom_site_label
 _atom_site_symmetry_multiplicity
 _atom_site_fract_x
 _atom_site_fract_y
 _atom_site_fract_z
 _atom_site_occupancy
  Li  Li0  1  0.37408750  0.75546050  0.37969500  1
  Li  Li1  1  0.37408750  0.24453950  0.37969500  1
  Li  Li2  1  0.87408750  0.25546050  0.37969500  1
  Li  Li3  1  0.87408750  0.74453950  0.37969500  1
  Mn  Mn4  1  0.11098000  0.50000000  0.86192200  1
  Mn  Mn5  1  0.01290200  0.00000000  0.01221900  1
  Mn  Mn6  1  0.24530200  0.00000000  0.72926000  1
  Mn  Mn7  1  0.12468700  0.50000000  0.37590400  1
  Mn  Mn8  1  0.61098000  0.00000000  0.86192200  1
  Mn  Mn9  1  0.51290200  0.50000000  0.01221900  1
  Mn  Mn10  1  0.74530200  0.50000000  0.72926000  1
  Mn  Mn11  1  0.62468700  0.00000000  0.37590400  1
  O  O12  1  0.11970150  0.28355350  0.61945300  1
  O  O13  1  0.40269100  0.00000000  0.64803200  1
  O  O14  1  0.13152700  0.28568900  0.13189400  1
  O  O15  1  0.13152700  0.71431100  0.13189400  1
  O  O16  1  0.11970150  0.71644650  0.61945300  1
  O  O17  1  0.61970150  0.78355350  0.61945300  1
  O  O18  1  0.90269100  0.50000000  0.64803200  1
  O  O19  1  0.63152700  0.78568900  0.13189400  1
  O  O20  1  0.63152700  0.21431100  0.13189400  1
  O  O21  1  0.61970150  0.21644650  0.61945300  1
  F  F22  1  0.37467500  0.50000000  0.60068000  1
  F  F23  1  0.35525100  0.50000000  0.11484900  1
  F  F24  1  0.37287800  0.00000000  0.14504700  1
  F  F25  1  0.87467500  0.00000000  0.60068000  1
  F  F26  1  0.85525100  0.00000000  0.11484900  1
  F  F27  1  0.87287800  0.50000000  0.14504700  1
