# generated using pymatgen
data_Ba6Ta9Ti7O42
_symmetry_space_group_name_H-M   'P 1'
_cell_length_a   9.17733400
_cell_length_b   15.86607800
_cell_length_c   11.96307700
_cell_angle_alpha   90.00000000
_cell_angle_beta   90.00034484
_cell_angle_gamma   90.00000000
_symmetry_Int_Tables_number   1
_chemical_formula_structural   Ba6Ta9Ti7O42
_chemical_formula_sum   'Ba12 Ta18 Ti14 O84'
_cell_volume   1741.92326976
_cell_formula_units_Z   2
loop_
 _symmetry_equiv_pos_site_id
 _symmetry_equiv_pos_as_xyz
  1  'x, y, z'
loop_
 _atom_site_type_symbol
 _atom_site_label
 _atom_site_symmetry_multiplicity
 _atom_site_fract_x
 _atom_site_fract_y
 _atom_site_fract_z
 _atom_site_occupancy
  Ba  Ba0  1  0.40442000  0.00000000  0.75617000  1
  Ba  Ba1  1  0.58856900  0.00000000  0.25014400  1
  Ba  Ba2  1  0.29690250  0.29629950  0.75635700  1
  Ba  Ba3  1  0.20504250  0.20019350  0.25057500  1
  Ba  Ba4  1  0.20504250  0.79980650  0.25057500  1
  Ba  Ba5  1  0.29690250  0.70370050  0.75635700  1
  Ba  Ba6  1  0.90442000  0.50000000  0.75617000  1
  Ba  Ba7  1  0.08856900  0.50000000  0.25014400  1
  Ba  Ba8  1  0.79690250  0.79629950  0.75635700  1
  Ba  Ba9  1  0.70504250  0.70019350  0.25057500  1
  Ba  Ba10  1  0.70504250  0.29980650  0.25057500  1
  Ba  Ba11  1  0.79690250  0.20370050  0.75635700  1
  Ta  Ta12  1  0.75430900  0.00000000  0.59199800  1
  Ta  Ta13  1  0.50018350  0.83435450  0.99631900  1
  Ta  Ta14  1  0.49976700  0.83347600  0.49371200  1
  Ta  Ta15  1  0.38033200  0.37777600  0.09145400  1
  Ta  Ta16  1  0.12310300  0.87808700  0.59382900  1
  Ta  Ta17  1  0.12310300  0.12191300  0.59382900  1
  Ta  Ta18  1  0.50018350  0.16564550  0.99631900  1
  Ta  Ta19  1  0.49976700  0.16652400  0.49371200  1
  Ta  Ta20  1  0.38033200  0.62222400  0.09145400  1
  Ta  Ta21  1  0.25430900  0.50000000  0.59199800  1
  Ta  Ta22  1  0.00018350  0.33435450  0.99631900  1
  Ta  Ta23  1  0.99976700  0.33347600  0.49371200  1
  Ta  Ta24  1  0.88033200  0.87777600  0.09145400  1
  Ta  Ta25  1  0.62310300  0.37808700  0.59382900  1
  Ta  Ta26  1  0.62310300  0.62191300  0.59382900  1
  Ta  Ta27  1  0.00018350  0.66564550  0.99631900  1
  Ta  Ta28  1  0.99976700  0.66652400  0.49371200  1
  Ta  Ta29  1  0.88033200  0.12222400  0.09145400  1
  Ti  Ti30  1  0.25020400  0.00000000  0.09049100  1
  Ti  Ti31  1  0.24132500  0.00000000  0.39876000  1
  Ti  Ti32  1  0.75513400  0.00000000  0.90474400  1
  Ti  Ti33  1  0.37770550  0.37764750  0.40418300  1
  Ti  Ti34  1  0.12563300  0.87913000  0.90873900  1
  Ti  Ti35  1  0.12563300  0.12087000  0.90873900  1
  Ti  Ti36  1  0.37770550  0.62235250  0.40418300  1
  Ti  Ti37  1  0.75020400  0.50000000  0.09049100  1
  Ti  Ti38  1  0.74132500  0.50000000  0.39876000  1
  Ti  Ti39  1  0.25513400  0.50000000  0.90474400  1
  Ti  Ti40  1  0.87770550  0.87764750  0.40418300  1
  Ti  Ti41  1  0.62563300  0.37913000  0.90873900  1
  Ti  Ti42  1  0.62563300  0.62087000  0.90873900  1
  Ti  Ti43  1  0.87770550  0.12235250  0.40418300  1
  O  O44  1  0.20037000  0.00000000  0.92657700  1
  O  O45  1  0.19986900  0.00000000  0.57734400  1
  O  O46  1  0.21378200  0.00000000  0.24851800  1
  O  O47  1  0.39721100  0.91584400  0.09792100  1
  O  O48  1  0.39682250  0.91590750  0.40054400  1
  O  O49  1  0.79005000  0.00000000  0.75100200  1
  O  O50  1  0.79703300  0.00000000  0.42544300  1
  O  O51  1  0.79845300  0.00000000  0.07642100  1
  O  O52  1  0.32482100  0.84358000  0.89945200  1
  O  O53  1  0.32651550  0.84266550  0.59939000  1
  O  O54  1  0.60283900  0.91616100  0.90036500  1
  O  O55  1  0.60068350  0.91544050  0.59942500  1
  O  O56  1  0.67608800  0.84329600  0.40111100  1
  O  O57  1  0.67412800  0.84299600  0.09898800  1
  O  O58  1  0.42711700  0.74024700  0.40066500  1
  O  O59  1  0.42599850  0.74219550  0.10069700  1
  O  O60  1  0.89707250  0.89919250  0.92518800  1
  O  O61  1  0.89937400  0.89941200  0.57610600  1
  O  O62  1  0.89532750  0.89532850  0.25113800  1
  O  O63  1  0.57213850  0.73978050  0.90347300  1
  O  O64  1  0.57274850  0.74178550  0.59888600  1
  O  O65  1  0.10066700  0.89957500  0.42530600  1
  O  O66  1  0.59960200  0.39874900  0.07531000  1
  O  O67  1  0.10527800  0.89479500  0.75206100  1
  O  O68  1  0.42711700  0.25975300  0.40066500  1
  O  O69  1  0.42599850  0.25780450  0.10069700  1
  O  O70  1  0.10527800  0.10520500  0.75206100  1
  O  O71  1  0.10066700  0.10042500  0.42530600  1
  O  O72  1  0.59960200  0.60125100  0.07531000  1
  O  O73  1  0.57213850  0.26021950  0.90347300  1
  O  O74  1  0.57274850  0.25821450  0.59888600  1
  O  O75  1  0.32651550  0.15733450  0.59939000  1
  O  O76  1  0.32482100  0.15642000  0.89945200  1
  O  O77  1  0.39682250  0.08409250  0.40054400  1
  O  O78  1  0.39721100  0.08415600  0.09792100  1
  O  O79  1  0.67608800  0.15670400  0.40111100  1
  O  O80  1  0.67412800  0.15700400  0.09898800  1
  O  O81  1  0.60068350  0.08455950  0.59942500  1
  O  O82  1  0.60283900  0.08383900  0.90036500  1
  O  O83  1  0.89532750  0.10467150  0.25113800  1
  O  O84  1  0.89937400  0.10058800  0.57610600  1
  O  O85  1  0.89707250  0.10080750  0.92518800  1
  O  O86  1  0.70037000  0.50000000  0.92657700  1
  O  O87  1  0.69986900  0.50000000  0.57734400  1
  O  O88  1  0.71378200  0.50000000  0.24851800  1
  O  O89  1  0.89721100  0.41584400  0.09792100  1
  O  O90  1  0.89682250  0.41590750  0.40054400  1
  O  O91  1  0.29005000  0.50000000  0.75100200  1
  O  O92  1  0.29703300  0.50000000  0.42544300  1
  O  O93  1  0.29845300  0.50000000  0.07642100  1
  O  O94  1  0.82482100  0.34358000  0.89945200  1
  O  O95  1  0.82651550  0.34266550  0.59939000  1
  O  O96  1  0.10283900  0.41616100  0.90036500  1
  O  O97  1  0.10068350  0.41544050  0.59942500  1
  O  O98  1  0.17608800  0.34329600  0.40111100  1
  O  O99  1  0.17412800  0.34299600  0.09898800  1
  O  O100  1  0.92711700  0.24024700  0.40066500  1
  O  O101  1  0.92599850  0.24219550  0.10069700  1
  O  O102  1  0.39707250  0.39919250  0.92518800  1
  O  O103  1  0.39937400  0.39941200  0.57610600  1
  O  O104  1  0.39532750  0.39532850  0.25113800  1
  O  O105  1  0.07213850  0.23978050  0.90347300  1
  O  O106  1  0.07274850  0.24178550  0.59888600  1
  O  O107  1  0.60066700  0.39957500  0.42530600  1
  O  O108  1  0.09960200  0.89874900  0.07531000  1
  O  O109  1  0.60527800  0.39479500  0.75206100  1
  O  O110  1  0.92711700  0.75975300  0.40066500  1
  O  O111  1  0.92599850  0.75780450  0.10069700  1
  O  O112  1  0.60527800  0.60520500  0.75206100  1
  O  O113  1  0.60066700  0.60042500  0.42530600  1
  O  O114  1  0.09960200  0.10125100  0.07531000  1
  O  O115  1  0.07213850  0.76021950  0.90347300  1
  O  O116  1  0.07274850  0.75821450  0.59888600  1
  O  O117  1  0.82651550  0.65733450  0.59939000  1
  O  O118  1  0.82482100  0.65642000  0.89945200  1
  O  O119  1  0.89682250  0.58409250  0.40054400  1
  O  O120  1  0.89721100  0.58415600  0.09792100  1
  O  O121  1  0.17608800  0.65670400  0.40111100  1
  O  O122  1  0.17412800  0.65700400  0.09898800  1
  O  O123  1  0.10068350  0.58455950  0.59942500  1
  O  O124  1  0.10283900  0.58383900  0.90036500  1
  O  O125  1  0.39532750  0.60467150  0.25113800  1
  O  O126  1  0.39937400  0.60058800  0.57610600  1
  O  O127  1  0.39707250  0.60080750  0.92518800  1
