# generated using pymatgen
data_Cr2OF2
_symmetry_space_group_name_H-M   'P 1'
_cell_length_a   7.04619600
_cell_length_b   9.76117400
_cell_length_c   10.89997400
_cell_angle_alpha   90.00000000
_cell_angle_beta   90.00000000
_cell_angle_gamma   90.00000000
_symmetry_Int_Tables_number   1
_chemical_formula_structural   Cr2OF2
_chemical_formula_sum   'Cr16 O8 F16'
_cell_volume   749.69089436
_cell_formula_units_Z   8
loop_
 _symmetry_equiv_pos_site_id
 _symmetry_equiv_pos_as_xyz
  1  'x, y, z'
loop_
 _atom_site_type_symbol
 _atom_site_label
 _atom_site_symmetry_multiplicity
 _atom_site_fract_x
 _atom_site_fract_y
 _atom_site_fract_z
 _atom_site_occupancy
  Cr  Cr0  1  0.87500000  0.87500000  0.12500000  1
  Cr  Cr1  1  0.62500000  0.62500000  0.12500000  1
  Cr  Cr2  1  0.87500000  0.62500000  0.37500000  1
  Cr  Cr3  1  0.62500000  0.87500000  0.37500000  1
  Cr  Cr4  1  0.87500000  0.37500000  0.62500000  1
  Cr  Cr5  1  0.62500000  0.12500000  0.62500000  1
  Cr  Cr6  1  0.87500000  0.12500000  0.87500000  1
  Cr  Cr7  1  0.62500000  0.37500000  0.87500000  1
  Cr  Cr8  1  0.37500000  0.87500000  0.62500000  1
  Cr  Cr9  1  0.12500000  0.62500000  0.62500000  1
  Cr  Cr10  1  0.37500000  0.62500000  0.87500000  1
  Cr  Cr11  1  0.12500000  0.87500000  0.87500000  1
  Cr  Cr12  1  0.37500000  0.37500000  0.12500000  1
  Cr  Cr13  1  0.12500000  0.12500000  0.12500000  1
  Cr  Cr14  1  0.37500000  0.12500000  0.37500000  1
  Cr  Cr15  1  0.12500000  0.37500000  0.37500000  1
  O  O16  1  0.75000000  0.75000000  0.25000000  1
  O  O17  1  0.00000000  0.00000000  0.00000000  1
  O  O18  1  0.75000000  0.25000000  0.75000000  1
  O  O19  1  0.00000000  0.50000000  0.50000000  1
  O  O20  1  0.25000000  0.75000000  0.75000000  1
  O  O21  1  0.50000000  0.00000000  0.50000000  1
  O  O22  1  0.25000000  0.25000000  0.25000000  1
  O  O23  1  0.50000000  0.50000000  0.00000000  1
  F  F24  1  0.00000000  0.00000000  0.24833800  1
  F  F25  1  0.75000000  0.75000000  0.49833800  1
  F  F26  1  0.50000000  0.00000000  0.25166200  1
  F  F27  1  0.75000000  0.75000000  0.00166200  1
  F  F28  1  0.00000000  0.50000000  0.74833800  1
  F  F29  1  0.75000000  0.25000000  0.99833800  1
  F  F30  1  0.50000000  0.50000000  0.75166200  1
  F  F31  1  0.75000000  0.25000000  0.50166200  1
  F  F32  1  0.50000000  0.00000000  0.74833800  1
  F  F33  1  0.25000000  0.75000000  0.99833800  1
  F  F34  1  0.00000000  0.00000000  0.75166200  1
  F  F35  1  0.25000000  0.75000000  0.50166200  1
  F  F36  1  0.50000000  0.50000000  0.24833800  1
  F  F37  1  0.25000000  0.25000000  0.49833800  1
  F  F38  1  0.00000000  0.50000000  0.25166200  1
  F  F39  1  0.25000000  0.25000000  0.00166200  1
