# generated using pymatgen
data_Tb2WO6
_symmetry_space_group_name_H-M   'P 1'
_cell_length_a   16.42448400
_cell_length_b   11.17328600
_cell_length_c   5.43141151
_cell_angle_alpha   90.00000000
_cell_angle_beta   107.24239706
_cell_angle_gamma   90.00000000
_symmetry_Int_Tables_number   1
_chemical_formula_structural   Tb2WO6
_chemical_formula_sum   'Tb16 W8 O48'
_cell_volume   951.95340110
_cell_formula_units_Z   8
loop_
 _symmetry_equiv_pos_site_id
 _symmetry_equiv_pos_as_xyz
  1  'x, y, z'
loop_
 _atom_site_type_symbol
 _atom_site_label
 _atom_site_symmetry_multiplicity
 _atom_site_fract_x
 _atom_site_fract_y
 _atom_site_fract_z
 _atom_site_occupancy
  Tb  Tb0  1  0.50000000  0.39408600  0.25000000  1
  Tb  Tb1  1  0.50000000  0.86643000  0.25000000  1
  Tb  Tb2  1  0.82903450  0.88532750  0.61681100  1
  Tb  Tb3  1  0.82903450  0.11467250  0.11681100  1
  Tb  Tb4  1  0.17096550  0.88532750  0.88318900  1
  Tb  Tb5  1  0.17096550  0.11467250  0.38318900  1
  Tb  Tb6  1  0.50000000  0.13357000  0.75000000  1
  Tb  Tb7  1  0.50000000  0.60591400  0.75000000  1
  Tb  Tb8  1  0.00000000  0.89408600  0.25000000  1
  Tb  Tb9  1  0.00000000  0.36643000  0.25000000  1
  Tb  Tb10  1  0.32903450  0.38532750  0.61681100  1
  Tb  Tb11  1  0.32903450  0.61467250  0.11681100  1
  Tb  Tb12  1  0.67096550  0.38532750  0.88318900  1
  Tb  Tb13  1  0.67096550  0.61467250  0.38318900  1
  Tb  Tb14  1  0.00000000  0.63357000  0.75000000  1
  Tb  Tb15  1  0.00000000  0.10591400  0.75000000  1
  W  W16  1  0.65293900  0.14737100  0.43384300  1
  W  W17  1  0.34706100  0.14737100  0.06615700  1
  W  W18  1  0.65293900  0.85262900  0.93384300  1
  W  W19  1  0.34706100  0.85262900  0.56615700  1
  W  W20  1  0.15293900  0.64737100  0.43384300  1
  W  W21  1  0.84706100  0.64737100  0.06615700  1
  W  W22  1  0.15293900  0.35262900  0.93384300  1
  W  W23  1  0.84706100  0.35262900  0.56615700  1
  O  O24  1  0.90840300  0.01576500  0.92168700  1
  O  O25  1  0.73256050  0.20582450  0.73727200  1
  O  O26  1  0.57637600  0.26366400  0.57916200  1
  O  O27  1  0.57808750  0.03379450  0.47923900  1
  O  O28  1  0.42191250  0.03379450  0.02076100  1
  O  O29  1  0.42362400  0.26366400  0.92083800  1
  O  O30  1  0.90840300  0.98423500  0.42168700  1
  O  O31  1  0.39774550  0.22208550  0.38346900  1
  O  O32  1  0.39774550  0.77791450  0.88346900  1
  O  O33  1  0.26666950  0.05069150  0.14714200  1
  O  O34  1  0.26666950  0.94930850  0.64714200  1
  O  O35  1  0.26743950  0.20582450  0.76272800  1
  O  O36  1  0.73256050  0.79417550  0.23727200  1
  O  O37  1  0.73333050  0.05069150  0.35285800  1
  O  O38  1  0.73333050  0.94930850  0.85285800  1
  O  O39  1  0.60225450  0.22208550  0.11653100  1
  O  O40  1  0.60225450  0.77791450  0.61653100  1
  O  O41  1  0.09159700  0.01576500  0.57831300  1
  O  O42  1  0.57637600  0.73633600  0.07916200  1
  O  O43  1  0.57808750  0.96620550  0.97923900  1
  O  O44  1  0.42191250  0.96620550  0.52076100  1
  O  O45  1  0.42362400  0.73633600  0.42083800  1
  O  O46  1  0.26743950  0.79417550  0.26272800  1
  O  O47  1  0.09159700  0.98423500  0.07831300  1
  O  O48  1  0.40840300  0.51576500  0.92168700  1
  O  O49  1  0.23256050  0.70582450  0.73727200  1
  O  O50  1  0.07637600  0.76366400  0.57916200  1
  O  O51  1  0.07808750  0.53379450  0.47923900  1
  O  O52  1  0.92191250  0.53379450  0.02076100  1
  O  O53  1  0.92362400  0.76366400  0.92083800  1
  O  O54  1  0.40840300  0.48423500  0.42168700  1
  O  O55  1  0.89774550  0.72208550  0.38346900  1
  O  O56  1  0.89774550  0.27791450  0.88346900  1
  O  O57  1  0.76666950  0.55069150  0.14714200  1
  O  O58  1  0.76666950  0.44930850  0.64714200  1
  O  O59  1  0.76743950  0.70582450  0.76272800  1
  O  O60  1  0.23256050  0.29417550  0.23727200  1
  O  O61  1  0.23333050  0.55069150  0.35285800  1
  O  O62  1  0.23333050  0.44930850  0.85285800  1
  O  O63  1  0.10225450  0.72208550  0.11653100  1
  O  O64  1  0.10225450  0.27791450  0.61653100  1
  O  O65  1  0.59159700  0.51576500  0.57831300  1
  O  O66  1  0.07637600  0.23633600  0.07916200  1
  O  O67  1  0.07808750  0.46620550  0.97923900  1
  O  O68  1  0.92191250  0.46620550  0.52076100  1
  O  O69  1  0.92362400  0.23633600  0.42083800  1
  O  O70  1  0.76743950  0.29417550  0.26272800  1
  O  O71  1  0.59159700  0.48423500  0.07831300  1
