# generated using pymatgen
data_LiMnFeO4
_symmetry_space_group_name_H-M   'P 1'
_cell_length_a   5.87750200
_cell_length_b   5.96480600
_cell_length_c   8.47686400
_cell_angle_alpha   90.00000000
_cell_angle_beta   90.00000000
_cell_angle_gamma   90.00000000
_symmetry_Int_Tables_number   1
_chemical_formula_structural   LiMnFeO4
_chemical_formula_sum   'Li4 Mn4 Fe4 O16'
_cell_volume   297.18324758
_cell_formula_units_Z   4
loop_
 _symmetry_equiv_pos_site_id
 _symmetry_equiv_pos_as_xyz
  1  'x, y, z'
loop_
 _atom_site_type_symbol
 _atom_site_label
 _atom_site_symmetry_multiplicity
 _atom_site_fract_x
 _atom_site_fract_y
 _atom_site_fract_z
 _atom_site_occupancy
  Li  Li0  1  0.50000000  0.75000000  0.88598200  1
  Li  Li1  1  0.50000000  0.25000000  0.11401800  1
  Li  Li2  1  0.00000000  0.25000000  0.38598200  1
  Li  Li3  1  0.00000000  0.75000000  0.61401800  1
  Mn  Mn4  1  0.25000000  0.25000000  0.75000000  1
  Mn  Mn5  1  0.75000000  0.25000000  0.75000000  1
  Mn  Mn6  1  0.75000000  0.75000000  0.25000000  1
  Mn  Mn7  1  0.25000000  0.75000000  0.25000000  1
  Fe  Fe8  1  0.00000000  0.50000000  0.00000000  1
  Fe  Fe9  1  0.00000000  0.00000000  0.00000000  1
  Fe  Fe10  1  0.50000000  0.00000000  0.50000000  1
  Fe  Fe11  1  0.50000000  0.50000000  0.50000000  1
  O  O12  1  0.76799000  0.75000000  0.02102000  1
  O  O13  1  0.50000000  0.03047500  0.74323600  1
  O  O14  1  0.00000000  0.96952500  0.24323600  1
  O  O15  1  0.23201000  0.75000000  0.02102000  1
  O  O16  1  0.76799000  0.25000000  0.97898000  1
  O  O17  1  0.50000000  0.96952500  0.25676400  1
  O  O18  1  0.00000000  0.03047500  0.75676400  1
  O  O19  1  0.23201000  0.25000000  0.97898000  1
  O  O20  1  0.26799000  0.25000000  0.52102000  1
  O  O21  1  0.00000000  0.53047500  0.24323600  1
  O  O22  1  0.50000000  0.46952500  0.74323600  1
  O  O23  1  0.73201000  0.25000000  0.52102000  1
  O  O24  1  0.26799000  0.75000000  0.47898000  1
  O  O25  1  0.00000000  0.46952500  0.75676400  1
  O  O26  1  0.50000000  0.53047500  0.25676400  1
  O  O27  1  0.73201000  0.75000000  0.47898000  1
