# generated using pymatgen
data_Li2Mn2Ni(PO4)3
_symmetry_space_group_name_H-M   'P 1'
_cell_length_a   14.48633000
_cell_length_b   8.89083600
_cell_length_c   8.33383229
_cell_angle_alpha   90.00000000
_cell_angle_beta   120.31488686
_cell_angle_gamma   90.00000000
_symmetry_Int_Tables_number   1
_chemical_formula_structural   Li2Mn2Ni(PO4)3
_chemical_formula_sum   'Li8 Mn8 Ni4 P12 O48'
_cell_volume   926.59420072
_cell_formula_units_Z   4
loop_
 _symmetry_equiv_pos_site_id
 _symmetry_equiv_pos_as_xyz
  1  'x, y, z'
loop_
 _atom_site_type_symbol
 _atom_site_label
 _atom_site_symmetry_multiplicity
 _atom_site_fract_x
 _atom_site_fract_y
 _atom_site_fract_z
 _atom_site_occupancy
  Li  Li0  1  0.50000000  0.14055700  0.50000000  1
  Li  Li1  1  0.50000000  0.84123000  0.00000000  1
  Li  Li2  1  0.19911600  0.95125300  0.39625600  1
  Li  Li3  1  0.80088400  0.95125300  0.60374400  1
  Li  Li4  1  0.00000000  0.64055700  0.50000000  1
  Li  Li5  1  0.00000000  0.34123000  0.00000000  1
  Li  Li6  1  0.69911600  0.45125300  0.39625600  1
  Li  Li7  1  0.30088400  0.45125300  0.60374400  1
  Mn  Mn8  1  0.60426000  0.24890400  0.89526600  1
  Mn  Mn9  1  0.39574000  0.24890400  0.10473400  1
  Mn  Mn10  1  0.59648800  0.75211000  0.40536800  1
  Mn  Mn11  1  0.40351200  0.75211000  0.59463200  1
  Mn  Mn12  1  0.10426000  0.74890400  0.89526600  1
  Mn  Mn13  1  0.89574000  0.74890400  0.10473400  1
  Mn  Mn14  1  0.09648800  0.25211000  0.40536800  1
  Mn  Mn15  1  0.90351200  0.25211000  0.59463200  1
  Ni  Ni16  1  0.25207900  0.75375300  0.75455400  1
  Ni  Ni17  1  0.74792100  0.75375300  0.24544600  1
  Ni  Ni18  1  0.75207900  0.25375300  0.75455400  1
  Ni  Ni19  1  0.24792100  0.25375300  0.24544600  1
  P  P20  1  0.65560350  0.90628050  0.82103400  1
  P  P21  1  0.34439650  0.90628050  0.17896600  1
  P  P22  1  0.50000000  0.43930300  0.50000000  1
  P  P23  1  0.50000000  0.54054100  0.00000000  1
  P  P24  1  0.64796350  0.10132450  0.30860600  1
  P  P25  1  0.35203650  0.10132450  0.69139400  1
  P  P26  1  0.15560350  0.40628050  0.82103400  1
  P  P27  1  0.84439650  0.40628050  0.17896600  1
  P  P28  1  0.00000000  0.93930300  0.50000000  1
  P  P29  1  0.00000000  0.04054100  0.00000000  1
  P  P30  1  0.14796350  0.60132450  0.30860600  1
  P  P31  1  0.85203650  0.60132450  0.69139400  1
  O  O32  1  0.34819950  0.16491150  0.85766100  1
  O  O33  1  0.44590700  0.44096800  0.07850200  1
  O  O34  1  0.66788200  0.08443000  0.82343100  1
  O  O35  1  0.54169000  0.13830000  0.29706900  1
  O  O36  1  0.54591400  0.85848000  0.78874000  1
  O  O37  1  0.73930500  0.84148400  0.01142800  1
  O  O38  1  0.26069500  0.84148400  0.98857200  1
  O  O39  1  0.33211800  0.08443000  0.17656900  1
  O  O40  1  0.55409300  0.44096800  0.92149800  1
  O  O41  1  0.41257450  0.32933550  0.35200700  1
  O  O42  1  0.41101350  0.64713950  0.85345300  1
  O  O43  1  0.65180050  0.16491150  0.14233900  1
  O  O44  1  0.32614400  0.86389200  0.33948700  1
  O  O45  1  0.58742550  0.32933550  0.64799300  1
  O  O46  1  0.58898650  0.64713950  0.14654700  1
  O  O47  1  0.93779500  0.03182100  0.56722500  1
  O  O48  1  0.67192900  0.92764100  0.31707100  1
  O  O49  1  0.73706250  0.16566050  0.50150200  1
  O  O50  1  0.26293750  0.16566050  0.49849800  1
  O  O51  1  0.45831000  0.13830000  0.70293100  1
  O  O52  1  0.45408600  0.85848000  0.21126000  1
  O  O53  1  0.32807100  0.92764100  0.68292900  1
  O  O54  1  0.06220500  0.03182100  0.43277500  1
  O  O55  1  0.67385600  0.86389200  0.66051300  1
  O  O56  1  0.84819950  0.66491150  0.85766100  1
  O  O57  1  0.94590700  0.94096800  0.07850200  1
  O  O58  1  0.16788200  0.58443000  0.82343100  1
  O  O59  1  0.04169000  0.63830000  0.29706900  1
  O  O60  1  0.04591400  0.35848000  0.78874000  1
  O  O61  1  0.23930500  0.34148400  0.01142800  1
  O  O62  1  0.76069500  0.34148400  0.98857200  1
  O  O63  1  0.83211800  0.58443000  0.17656900  1
  O  O64  1  0.05409300  0.94096800  0.92149800  1
  O  O65  1  0.91257450  0.82933550  0.35200700  1
  O  O66  1  0.91101350  0.14713950  0.85345300  1
  O  O67  1  0.15180050  0.66491150  0.14233900  1
  O  O68  1  0.82614400  0.36389200  0.33948700  1
  O  O69  1  0.08742550  0.82933550  0.64799300  1
  O  O70  1  0.08898650  0.14713950  0.14654700  1
  O  O71  1  0.43779500  0.53182100  0.56722500  1
  O  O72  1  0.17192900  0.42764100  0.31707100  1
  O  O73  1  0.23706250  0.66566050  0.50150200  1
  O  O74  1  0.76293750  0.66566050  0.49849800  1
  O  O75  1  0.95831000  0.63830000  0.70293100  1
  O  O76  1  0.95408600  0.35848000  0.21126000  1
  O  O77  1  0.82807100  0.42764100  0.68292900  1
  O  O78  1  0.56220500  0.53182100  0.43277500  1
  O  O79  1  0.17385600  0.36389200  0.66051300  1
