# generated using pymatgen
data_Mn2OF3
_symmetry_space_group_name_H-M   'P 1'
_cell_length_a   4.80875700
_cell_length_b   6.03189900
_cell_length_c   10.63198400
_cell_angle_alpha   90.00000000
_cell_angle_beta   90.00000000
_cell_angle_gamma   90.00000000
_symmetry_Int_Tables_number   1
_chemical_formula_structural   Mn2OF3
_chemical_formula_sum   'Mn8 O4 F12'
_cell_volume   308.39065320
_cell_formula_units_Z   4
loop_
 _symmetry_equiv_pos_site_id
 _symmetry_equiv_pos_as_xyz
  1  'x, y, z'
loop_
 _atom_site_type_symbol
 _atom_site_label
 _atom_site_symmetry_multiplicity
 _atom_site_fract_x
 _atom_site_fract_y
 _atom_site_fract_z
 _atom_site_occupancy
  Mn  Mn0  1  0.00000000  0.50000000  0.50000000  1
  Mn  Mn1  1  0.00000000  0.00000000  0.50000000  1
  Mn  Mn2  1  0.45565200  0.75000000  0.28215750  1
  Mn  Mn3  1  0.54434800  0.25000000  0.71784250  1
  Mn  Mn4  1  0.50000000  0.00000000  0.00000000  1
  Mn  Mn5  1  0.50000000  0.50000000  0.00000000  1
  Mn  Mn6  1  0.04434800  0.75000000  0.78215750  1
  Mn  Mn7  1  0.95565200  0.25000000  0.21784250  1
  O  O8  1  0.30580500  0.75000000  0.93288650  1
  O  O9  1  0.19419500  0.75000000  0.43288650  1
  O  O10  1  0.80580500  0.25000000  0.56711350  1
  O  O11  1  0.69419500  0.25000000  0.06711350  1
  F  F12  1  0.29718800  0.25000000  0.89801350  1
  F  F13  1  0.20281200  0.25000000  0.39801350  1
  F  F14  1  0.79718800  0.75000000  0.60198650  1
  F  F15  1  0.70281200  0.75000000  0.10198650  1
  F  F16  1  0.24741500  0.00118250  0.66134650  1
  F  F17  1  0.24741500  0.49881750  0.66134650  1
  F  F18  1  0.25258500  0.00118250  0.16134650  1
  F  F19  1  0.25258500  0.49881750  0.16134650  1
  F  F20  1  0.74741500  0.50118250  0.83865350  1
  F  F21  1  0.74741500  0.99881750  0.83865350  1
  F  F22  1  0.75258500  0.50118250  0.33865350  1
  F  F23  1  0.75258500  0.99881750  0.33865350  1
