# generated using pymatgen
data_Fe5O3F7
_symmetry_space_group_name_H-M   'P 1'
_cell_length_a   4.78361809
_cell_length_b   4.78456862
_cell_length_c   15.72762556
_cell_angle_alpha   89.94480131
_cell_angle_beta   89.83781461
_cell_angle_gamma   89.54755453
_symmetry_Int_Tables_number   1
_chemical_formula_structural   Fe5O3F7
_chemical_formula_sum   'Fe10 O6 F14'
_cell_volume   359.95397606
_cell_formula_units_Z   2
loop_
 _symmetry_equiv_pos_site_id
 _symmetry_equiv_pos_as_xyz
  1  'x, y, z'
loop_
 _atom_site_type_symbol
 _atom_site_label
 _atom_site_symmetry_multiplicity
 _atom_site_fract_x
 _atom_site_fract_y
 _atom_site_fract_z
 _atom_site_occupancy
  Fe  Fe0  1  0.96215100  0.02781000  0.99334900  1
  Fe  Fe1  1  0.02343300  0.97195900  0.19809100  1
  Fe  Fe2  1  0.01156000  0.98389400  0.40116300  1
  Fe  Fe3  1  0.01939500  0.97317000  0.60656600  1
  Fe  Fe4  1  0.97414400  0.97667400  0.79991000  1
  Fe  Fe5  1  0.49808300  0.49521000  0.10164700  1
  Fe  Fe6  1  0.47231000  0.52209500  0.49814100  1
  Fe  Fe7  1  0.47506900  0.52112800  0.30072100  1
  Fe  Fe8  1  0.51757000  0.53434800  0.69376200  1
  Fe  Fe9  1  0.53152400  0.51900500  0.90607100  1
  O  O10  1  0.80018400  0.80067000  0.70676400  1
  O  O11  1  0.79512300  0.80534300  0.89337200  1
  O  O12  1  0.31848900  0.67366400  0.19848800  1
  O  O13  1  0.31326000  0.68252600  0.39989500  1
  O  O14  1  0.31701400  0.68461000  0.59970400  1
  O  O15  1  0.66819300  0.32778700  0.00244800  1
  F  F16  1  0.78557000  0.79798100  0.09815600  1
  F  F17  1  0.79925000  0.78261800  0.30016600  1
  F  F18  1  0.79724100  0.78820600  0.49939900  1
  F  F19  1  0.28967100  0.71316600  0.99970000  1
  F  F20  1  0.30460600  0.69663800  0.80028900  1
  F  F21  1  0.70286700  0.28880000  0.20105900  1
  F  F22  1  0.69363600  0.30043800  0.40068700  1
  F  F23  1  0.70619800  0.29926200  0.59945600  1
  F  F24  1  0.69436200  0.30909600  0.79983200  1
  F  F25  1  0.19474800  0.20829600  0.09666200  1
  F  F26  1  0.21030200  0.19806100  0.50250800  1
  F  F27  1  0.20920100  0.19518000  0.30168600  1
  F  F28  1  0.20250100  0.21545200  0.88973100  1
  F  F29  1  0.21234700  0.20691500  0.71058000  1
