# generated using pymatgen
data_Li3Mn4NiO8
_symmetry_space_group_name_H-M   'P 1'
_cell_length_a   10.30744000
_cell_length_b   6.07217800
_cell_length_c   6.07686423
_cell_angle_alpha   90.00000000
_cell_angle_beta   125.84350787
_cell_angle_gamma   90.00000000
_symmetry_Int_Tables_number   1
_chemical_formula_structural   Li3Mn4NiO8
_chemical_formula_sum   'Li6 Mn8 Ni2 O16'
_cell_volume   308.31299698
_cell_formula_units_Z   2
loop_
 _symmetry_equiv_pos_site_id
 _symmetry_equiv_pos_as_xyz
  1  'x, y, z'
loop_
 _atom_site_type_symbol
 _atom_site_label
 _atom_site_symmetry_multiplicity
 _atom_site_fract_x
 _atom_site_fract_y
 _atom_site_fract_z
 _atom_site_occupancy
  Li  Li0  1  0.25000000  0.75000000  0.50000000  1
  Li  Li1  1  0.00000000  0.00000000  0.50000000  1
  Li  Li2  1  0.25000000  0.25000000  0.50000000  1
  Li  Li3  1  0.75000000  0.25000000  0.50000000  1
  Li  Li4  1  0.50000000  0.50000000  0.50000000  1
  Li  Li5  1  0.75000000  0.75000000  0.50000000  1
  Mn  Mn6  1  0.50000000  0.00000000  0.50000000  1
  Mn  Mn7  1  0.00000000  0.00000000  0.00000000  1
  Mn  Mn8  1  0.25000000  0.75000000  0.00000000  1
  Mn  Mn9  1  0.75000000  0.75000000  0.00000000  1
  Mn  Mn10  1  0.00000000  0.50000000  0.50000000  1
  Mn  Mn11  1  0.50000000  0.50000000  0.00000000  1
  Mn  Mn12  1  0.75000000  0.25000000  0.00000000  1
  Mn  Mn13  1  0.25000000  0.25000000  0.00000000  1
  Ni  Ni14  1  0.00000000  0.50000000  0.00000000  1
  Ni  Ni15  1  0.50000000  0.00000000  0.00000000  1
  O  O16  1  0.25057100  0.00000000  0.79121600  1
  O  O17  1  0.51270050  0.75175850  0.76699600  1
  O  O18  1  0.51270050  0.24824150  0.76699600  1
  O  O19  1  0.24603900  0.50000000  0.72448500  1
  O  O20  1  0.25396100  0.00000000  0.27551500  1
  O  O21  1  0.98729950  0.25175850  0.23300400  1
  O  O22  1  0.98729950  0.74824150  0.23300400  1
  O  O23  1  0.24942900  0.50000000  0.20878400  1
  O  O24  1  0.75057100  0.50000000  0.79121600  1
  O  O25  1  0.01270050  0.25175850  0.76699600  1
  O  O26  1  0.01270050  0.74824150  0.76699600  1
  O  O27  1  0.74603900  0.00000000  0.72448500  1
  O  O28  1  0.75396100  0.50000000  0.27551500  1
  O  O29  1  0.48729950  0.75175850  0.23300400  1
  O  O30  1  0.48729950  0.24824150  0.23300400  1
  O  O31  1  0.74942900  0.00000000  0.20878400  1
