# generated using pymatgen
data_Li3Mn4VO8
_symmetry_space_group_name_H-M   'P 1'
_cell_length_a   10.62697600
_cell_length_b   6.03256400
_cell_length_c   6.01652707
_cell_angle_alpha   90.00000000
_cell_angle_beta   123.92531928
_cell_angle_gamma   90.00000000
_symmetry_Int_Tables_number   1
_chemical_formula_structural   Li3Mn4VO8
_chemical_formula_sum   'Li6 Mn8 V2 O16'
_cell_volume   320.04644617
_cell_formula_units_Z   2
loop_
 _symmetry_equiv_pos_site_id
 _symmetry_equiv_pos_as_xyz
  1  'x, y, z'
loop_
 _atom_site_type_symbol
 _atom_site_label
 _atom_site_symmetry_multiplicity
 _atom_site_fract_x
 _atom_site_fract_y
 _atom_site_fract_z
 _atom_site_occupancy
  Li  Li0  1  0.25000000  0.75000000  0.00000000  1
  Li  Li1  1  0.00000000  0.00000000  0.50000000  1
  Li  Li2  1  0.25000000  0.25000000  0.00000000  1
  Li  Li3  1  0.75000000  0.25000000  0.00000000  1
  Li  Li4  1  0.50000000  0.50000000  0.50000000  1
  Li  Li5  1  0.75000000  0.75000000  0.00000000  1
  Mn  Mn6  1  0.00000000  0.50000000  0.50000000  1
  Mn  Mn7  1  0.00000000  0.00000000  0.00000000  1
  Mn  Mn8  1  0.25000000  0.75000000  0.50000000  1
  Mn  Mn9  1  0.25000000  0.25000000  0.50000000  1
  Mn  Mn10  1  0.50000000  0.00000000  0.50000000  1
  Mn  Mn11  1  0.50000000  0.50000000  0.00000000  1
  Mn  Mn12  1  0.75000000  0.25000000  0.50000000  1
  Mn  Mn13  1  0.75000000  0.75000000  0.50000000  1
  V  V14  1  0.00000000  0.50000000  0.00000000  1
  V  V15  1  0.50000000  0.00000000  0.00000000  1
  O  O16  1  0.22641900  0.50000000  0.24274200  1
  O  O17  1  0.00612650  0.74367050  0.76166500  1
  O  O18  1  0.00612650  0.25632950  0.76166500  1
  O  O19  1  0.24910900  0.00000000  0.26557100  1
  O  O20  1  0.25089100  0.50000000  0.73442900  1
  O  O21  1  0.49387350  0.24367050  0.23833500  1
  O  O22  1  0.49387350  0.75632950  0.23833500  1
  O  O23  1  0.27358100  0.00000000  0.75725800  1
  O  O24  1  0.72641900  0.00000000  0.24274200  1
  O  O25  1  0.50612650  0.24367050  0.76166500  1
  O  O26  1  0.50612650  0.75632950  0.76166500  1
  O  O27  1  0.74910900  0.50000000  0.26557100  1
  O  O28  1  0.75089100  0.00000000  0.73442900  1
  O  O29  1  0.99387350  0.74367050  0.23833500  1
  O  O30  1  0.99387350  0.25632950  0.23833500  1
  O  O31  1  0.77358100  0.50000000  0.75725800  1
