# generated using pymatgen
data_Ba4La6Mn5In5O30
_symmetry_space_group_name_H-M   'P 1'
_cell_length_a   10.02932200
_cell_length_b   5.74043400
_cell_length_c   23.85012883
_cell_angle_alpha   90.00000000
_cell_angle_beta   98.60155933
_cell_angle_gamma   90.00000000
_symmetry_Int_Tables_number   1
_chemical_formula_structural   Ba4La6Mn5In5O30
_chemical_formula_sum   'Ba8 La12 Mn10 In10 O60'
_cell_volume   1357.67100739
_cell_formula_units_Z   2
loop_
 _symmetry_equiv_pos_site_id
 _symmetry_equiv_pos_as_xyz
  1  'x, y, z'
loop_
 _atom_site_type_symbol
 _atom_site_label
 _atom_site_symmetry_multiplicity
 _atom_site_fract_x
 _atom_site_fract_y
 _atom_site_fract_z
 _atom_site_occupancy
  Ba  Ba0  1  0.44755800  0.00000000  0.84731100  1
  Ba  Ba1  1  0.64751700  0.50000000  0.94322300  1
  Ba  Ba2  1  0.75292800  0.00000000  0.75297600  1
  Ba  Ba3  1  0.35142700  0.00000000  0.55648900  1
  Ba  Ba4  1  0.94755800  0.50000000  0.84731100  1
  Ba  Ba5  1  0.14751700  0.00000000  0.94322300  1
  Ba  Ba6  1  0.25292800  0.50000000  0.75297600  1
  Ba  Ba7  1  0.85142700  0.50000000  0.55648900  1
  La  La8  1  0.54716800  0.50000000  0.66177700  1
  La  La9  1  0.64091700  0.00000000  0.45551100  1
  La  La10  1  0.24510700  0.00000000  0.24302700  1
  La  La11  1  0.45769700  0.50000000  0.36371300  1
  La  La12  1  0.33952700  0.50000000  0.03348300  1
  La  La13  1  0.55595200  0.00000000  0.14188300  1
  La  La14  1  0.04716800  0.00000000  0.66177700  1
  La  La15  1  0.14091700  0.50000000  0.45551100  1
  La  La16  1  0.74510700  0.50000000  0.24302700  1
  La  La17  1  0.95769700  0.00000000  0.36371300  1
  La  La18  1  0.83952700  0.00000000  0.03348300  1
  La  La19  1  0.05595200  0.50000000  0.14188300  1
  Mn  Mn20  1  0.79745900  0.00000000  0.89531900  1
  Mn  Mn21  1  0.50556200  0.00000000  0.99411200  1
  Mn  Mn22  1  0.40559500  0.00000000  0.70207700  1
  Mn  Mn23  1  0.59702100  0.50000000  0.80118700  1
  Mn  Mn24  1  0.50289500  0.50000000  0.50613300  1
  Mn  Mn25  1  0.29745900  0.50000000  0.89531900  1
  Mn  Mn26  1  0.00556200  0.50000000  0.99411200  1
  Mn  Mn27  1  0.90559500  0.50000000  0.70207700  1
  Mn  Mn28  1  0.09702100  0.00000000  0.80118700  1
  Mn  Mn29  1  0.00289500  0.00000000  0.50613300  1
  In  In30  1  0.70064100  0.00000000  0.60278300  1
  In  In31  1  0.60187800  0.00000000  0.29960100  1
  In  In32  1  0.29654300  0.00000000  0.40315800  1
  In  In33  1  0.19308700  0.00000000  0.09394400  1
  In  In34  1  0.40177200  0.50000000  0.19837400  1
  In  In35  1  0.20064100  0.50000000  0.60278300  1
  In  In36  1  0.10187800  0.50000000  0.29960100  1
  In  In37  1  0.79654300  0.50000000  0.40315800  1
  In  In38  1  0.69308700  0.50000000  0.09394400  1
  In  In39  1  0.90177200  0.00000000  0.19837400  1
  O  O40  1  0.63749300  0.00000000  0.94246600  1
  O  O41  1  0.70423450  0.25110050  0.84792600  1
  O  O42  1  0.89093350  0.24039050  0.95311400  1
  O  O43  1  0.74674600  0.50000000  0.73938100  1
  O  O44  1  0.33160250  0.25110950  0.65256000  1
  O  O45  1  0.50369100  0.26041500  0.74999200  1
  O  O46  1  0.70423450  0.74889950  0.84792600  1
  O  O47  1  0.89093350  0.75960950  0.95311400  1
  O  O48  1  0.32297300  0.50000000  0.53397800  1
  O  O49  1  0.44792500  0.50000000  0.85136000  1
  O  O50  1  0.43195800  0.74316700  0.44836300  1
  O  O51  1  0.57483950  0.72802750  0.56071500  1
  O  O52  1  0.33160250  0.74889050  0.65256000  1
  O  O53  1  0.50369100  0.73958500  0.74999200  1
  O  O54  1  0.39998100  0.00000000  0.32970700  1
  O  O55  1  0.56141500  0.00000000  0.66175900  1
  O  O56  1  0.54815450  0.24279850  0.23141900  1
  O  O57  1  0.65367050  0.24157650  0.36933000  1
  O  O58  1  0.43195800  0.25683300  0.44836300  1
  O  O59  1  0.57483950  0.27197250  0.56071500  1
  O  O60  1  0.49267200  0.50000000  0.11948500  1
  O  O61  1  0.65921300  0.50000000  0.46949600  1
  O  O62  1  0.11993300  0.27807300  0.03869000  1
  O  O63  1  0.25815200  0.24711100  0.15973400  1
  O  O64  1  0.54815450  0.75720150  0.23141900  1
  O  O65  1  0.65367050  0.75842350  0.36933000  1
  O  O66  1  0.30849600  0.50000000  0.27718400  1
  O  O67  1  0.11993300  0.72192700  0.03869000  1
  O  O68  1  0.25815200  0.75288900  0.15973400  1
  O  O69  1  0.38103200  0.00000000  0.05529900  1
  O  O70  1  0.13749300  0.50000000  0.94246600  1
  O  O71  1  0.20423450  0.75110050  0.84792600  1
  O  O72  1  0.39093350  0.74039050  0.95311400  1
  O  O73  1  0.24674600  0.00000000  0.73938100  1
  O  O74  1  0.83160250  0.75110950  0.65256000  1
  O  O75  1  0.00369100  0.76041500  0.74999200  1
  O  O76  1  0.20423450  0.24889950  0.84792600  1
  O  O77  1  0.39093350  0.25960950  0.95311400  1
  O  O78  1  0.82297300  0.00000000  0.53397800  1
  O  O79  1  0.94792500  0.00000000  0.85136000  1
  O  O80  1  0.93195800  0.24316700  0.44836300  1
  O  O81  1  0.07483950  0.22802750  0.56071500  1
  O  O82  1  0.83160250  0.24889050  0.65256000  1
  O  O83  1  0.00369100  0.23958500  0.74999200  1
  O  O84  1  0.89998100  0.50000000  0.32970700  1
  O  O85  1  0.06141500  0.50000000  0.66175900  1
  O  O86  1  0.04815450  0.74279850  0.23141900  1
  O  O87  1  0.15367050  0.74157650  0.36933000  1
  O  O88  1  0.93195800  0.75683300  0.44836300  1
  O  O89  1  0.07483950  0.77197250  0.56071500  1
  O  O90  1  0.99267200  0.00000000  0.11948500  1
  O  O91  1  0.15921300  0.00000000  0.46949600  1
  O  O92  1  0.61993300  0.77807300  0.03869000  1
  O  O93  1  0.75815200  0.74711100  0.15973400  1
  O  O94  1  0.04815450  0.25720150  0.23141900  1
  O  O95  1  0.15367050  0.25842350  0.36933000  1
  O  O96  1  0.80849600  0.00000000  0.27718400  1
  O  O97  1  0.61993300  0.22192700  0.03869000  1
  O  O98  1  0.75815200  0.25288900  0.15973400  1
  O  O99  1  0.88103200  0.50000000  0.05529900  1
