# generated using pymatgen
data_LiNbFeO4
_symmetry_space_group_name_H-M   'P 1'
_cell_length_a   6.14272132
_cell_length_b   6.14272132
_cell_length_c   8.78482320
_cell_angle_alpha   90.00000000
_cell_angle_beta   90.00000000
_cell_angle_gamma   90.00000000
_symmetry_Int_Tables_number   1
_chemical_formula_structural   LiNbFeO4
_chemical_formula_sum   'Li4 Nb4 Fe4 O16'
_cell_volume   331.47795490
_cell_formula_units_Z   4
loop_
 _symmetry_equiv_pos_site_id
 _symmetry_equiv_pos_as_xyz
  1  'x, y, z'
loop_
 _atom_site_type_symbol
 _atom_site_label
 _atom_site_symmetry_multiplicity
 _atom_site_fract_x
 _atom_site_fract_y
 _atom_site_fract_z
 _atom_site_occupancy
  Li  Li0  1  0.00000000  0.23487700  0.00000000  1
  Li  Li1  1  0.00000000  0.76512300  0.50000000  1
  Li  Li2  1  0.23487700  0.00000000  0.25000000  1
  Li  Li3  1  0.76512300  0.00000000  0.75000000  1
  Nb  Nb4  1  0.25188050  0.25188050  0.62500000  1
  Nb  Nb5  1  0.25188050  0.74811950  0.87500000  1
  Nb  Nb6  1  0.74811950  0.25188050  0.37500000  1
  Nb  Nb7  1  0.74811950  0.74811950  0.12500000  1
  Fe  Fe8  1  0.50000000  0.75733000  0.50000000  1
  Fe  Fe9  1  0.75733000  0.50000000  0.75000000  1
  Fe  Fe10  1  0.24267000  0.50000000  0.25000000  1
  Fe  Fe11  1  0.50000000  0.24267000  0.00000000  1
  O  O12  1  0.99891800  0.25175100  0.25411700  1
  O  O13  1  0.99891800  0.74824900  0.24588300  1
  O  O14  1  0.25175100  0.99891800  0.99588300  1
  O  O15  1  0.25175100  0.00108200  0.50411700  1
  O  O16  1  0.74824900  0.99891800  0.00411700  1
  O  O17  1  0.74824900  0.00108200  0.49588300  1
  O  O18  1  0.00108200  0.25175100  0.74588300  1
  O  O19  1  0.00108200  0.74824900  0.75411700  1
  O  O20  1  0.25694600  0.49742500  0.00177400  1
  O  O21  1  0.25694600  0.50257500  0.49822600  1
  O  O22  1  0.49742500  0.25694600  0.24822600  1
  O  O23  1  0.49742500  0.74305400  0.25177400  1
  O  O24  1  0.50257500  0.25694600  0.75177400  1
  O  O25  1  0.50257500  0.74305400  0.74822600  1
  O  O26  1  0.74305400  0.50257500  0.50177400  1
  O  O27  1  0.74305400  0.49742500  0.99822600  1
