# generated using pymatgen
data_Li4Mn3Nb2Sn3O16
_symmetry_space_group_name_H-M   'P 1'
_cell_length_a   10.90841600
_cell_length_b   6.23010800
_cell_length_c   10.00688808
_cell_angle_alpha   90.00000000
_cell_angle_beta   90.49937323
_cell_angle_gamma   90.00000000
_symmetry_Int_Tables_number   1
_chemical_formula_structural   Li4Mn3Nb2Sn3O16
_chemical_formula_sum   'Li8 Mn6 Nb4 Sn6 O32'
_cell_volume   680.04838554
_cell_formula_units_Z   2
loop_
 _symmetry_equiv_pos_site_id
 _symmetry_equiv_pos_as_xyz
  1  'x, y, z'
loop_
 _atom_site_type_symbol
 _atom_site_label
 _atom_site_symmetry_multiplicity
 _atom_site_fract_x
 _atom_site_fract_y
 _atom_site_fract_z
 _atom_site_occupancy
  Li  Li0  1  0.66971400  0.00000000  0.90283600  1
  Li  Li1  1  0.99521800  0.00000000  0.98402100  1
  Li  Li2  1  0.99907800  0.00000000  0.49477700  1
  Li  Li3  1  0.82713500  0.50000000  0.40532700  1
  Li  Li4  1  0.16971400  0.50000000  0.90283600  1
  Li  Li5  1  0.49521800  0.50000000  0.98402100  1
  Li  Li6  1  0.49907800  0.50000000  0.49477700  1
  Li  Li7  1  0.32713500  0.00000000  0.40532700  1
  Mn  Mn8  1  0.82924700  0.00000000  0.21325900  1
  Mn  Mn9  1  0.91719500  0.74526900  0.70998000  1
  Mn  Mn10  1  0.91719500  0.25473100  0.70998000  1
  Mn  Mn11  1  0.32924700  0.50000000  0.21325900  1
  Mn  Mn12  1  0.41719500  0.24526900  0.70998000  1
  Mn  Mn13  1  0.41719500  0.75473100  0.70998000  1
  Nb  Nb14  1  0.67468000  0.00000000  0.49646500  1
  Nb  Nb15  1  0.84967100  0.50000000  0.98021600  1
  Nb  Nb16  1  0.17468000  0.50000000  0.49646500  1
  Nb  Nb17  1  0.34967100  0.00000000  0.98021600  1
  Sn  Sn18  1  0.58476450  0.24705250  0.21454200  1
  Sn  Sn19  1  0.58476450  0.75294750  0.21454200  1
  Sn  Sn20  1  0.67288400  0.50000000  0.71679300  1
  Sn  Sn21  1  0.08476450  0.74705250  0.21454200  1
  Sn  Sn22  1  0.08476450  0.25294750  0.21454200  1
  Sn  Sn23  1  0.17288400  0.00000000  0.71679300  1
  O  O24  1  0.59156350  0.24538150  0.58828800  1
  O  O25  1  0.51451900  0.00000000  0.33912400  1
  O  O26  1  0.65943700  0.00000000  0.10214400  1
  O  O27  1  0.50156800  0.50000000  0.31129500  1
  O  O28  1  0.50631400  0.50000000  0.80092400  1
  O  O29  1  0.59156350  0.75461850  0.58828800  1
  O  O30  1  0.73145700  0.22206100  0.34894000  1
  O  O31  1  0.73145700  0.77793900  0.34894000  1
  O  O32  1  0.65928300  0.50000000  0.09850800  1
  O  O33  1  0.82893700  0.00000000  0.58032200  1
  O  O34  1  0.75707850  0.71557550  0.85523800  1
  O  O35  1  0.75707850  0.28442450  0.85523800  1
  O  O36  1  0.82735100  0.50000000  0.60585900  1
  O  O37  1  0.91889550  0.74266850  0.09100900  1
  O  O38  1  0.98194400  0.50000000  0.85991900  1
  O  O39  1  0.91889550  0.25733150  0.09100900  1
  O  O40  1  0.09156350  0.74538150  0.58828800  1
  O  O41  1  0.01451900  0.50000000  0.33912400  1
  O  O42  1  0.15943700  0.50000000  0.10214400  1
  O  O43  1  0.00156800  0.00000000  0.31129500  1
  O  O44  1  0.00631400  0.00000000  0.80092400  1
  O  O45  1  0.09156350  0.25461850  0.58828800  1
  O  O46  1  0.23145700  0.72206100  0.34894000  1
  O  O47  1  0.23145700  0.27793900  0.34894000  1
  O  O48  1  0.15928300  0.00000000  0.09850800  1
  O  O49  1  0.32893700  0.50000000  0.58032200  1
  O  O50  1  0.25707850  0.21557550  0.85523800  1
  O  O51  1  0.25707850  0.78442450  0.85523800  1
  O  O52  1  0.32735100  0.00000000  0.60585900  1
  O  O53  1  0.41889550  0.24266850  0.09100900  1
  O  O54  1  0.48194400  0.00000000  0.85991900  1
  O  O55  1  0.41889550  0.75733150  0.09100900  1
