# generated using pymatgen
data_Li2Fe3NiO8
_symmetry_space_group_name_H-M   'P 1'
_cell_length_a   5.95353003
_cell_length_b   10.06035735
_cell_length_c   9.60125564
_cell_angle_alpha   90.00000000
_cell_angle_beta   90.00000000
_cell_angle_gamma   90.00000000
_symmetry_Int_Tables_number   1
_chemical_formula_structural   Li2Fe3NiO8
_chemical_formula_sum   'Li8 Fe12 Ni4 O32'
_cell_volume   575.06374576
_cell_formula_units_Z   4
loop_
 _symmetry_equiv_pos_site_id
 _symmetry_equiv_pos_as_xyz
  1  'x, y, z'
loop_
 _atom_site_type_symbol
 _atom_site_label
 _atom_site_symmetry_multiplicity
 _atom_site_fract_x
 _atom_site_fract_y
 _atom_site_fract_z
 _atom_site_occupancy
  Li  Li0  1  0.50000000  0.32937250  0.11131600  1
  Li  Li1  1  0.50000000  0.99563000  0.00075300  1
  Li  Li2  1  0.50000000  0.00437000  0.50075300  1
  Li  Li3  1  0.50000000  0.67062750  0.61131600  1
  Li  Li4  1  0.00000000  0.82937250  0.11131600  1
  Li  Li5  1  0.00000000  0.49563000  0.00075300  1
  Li  Li6  1  0.00000000  0.50437000  0.50075300  1
  Li  Li7  1  0.00000000  0.17062750  0.61131600  1
  Fe  Fe8  1  0.25423050  0.41493200  0.78414900  1
  Fe  Fe9  1  0.74576950  0.41493200  0.78414900  1
  Fe  Fe10  1  0.50000000  0.16904800  0.78765800  1
  Fe  Fe11  1  0.50000000  0.83095200  0.28765800  1
  Fe  Fe12  1  0.25423050  0.58506800  0.28414900  1
  Fe  Fe13  1  0.74576950  0.58506800  0.28414900  1
  Fe  Fe14  1  0.75423050  0.91493200  0.78414900  1
  Fe  Fe15  1  0.24576950  0.91493200  0.78414900  1
  Fe  Fe16  1  0.00000000  0.66904800  0.78765800  1
  Fe  Fe17  1  0.00000000  0.33095200  0.28765800  1
  Fe  Fe18  1  0.75423050  0.08506800  0.28414900  1
  Fe  Fe19  1  0.24576950  0.08506800  0.28414900  1
  Ni  Ni20  1  0.50000000  0.33665650  0.51074900  1
  Ni  Ni21  1  0.50000000  0.66334350  0.01074900  1
  Ni  Ni22  1  0.00000000  0.83665650  0.51074900  1
  Ni  Ni23  1  0.00000000  0.16334350  0.01074900  1
  O  O24  1  0.24632100  0.42948250  0.39731700  1
  O  O25  1  0.50000000  0.48327250  0.66959900  1
  O  O26  1  0.50000000  0.31846450  0.89821000  1
  O  O27  1  0.50000000  0.01341700  0.68578600  1
  O  O28  1  0.50000000  0.98658300  0.18578600  1
  O  O29  1  0.75367900  0.42948250  0.39731700  1
  O  O30  1  0.27303650  0.26627900  0.66389800  1
  O  O31  1  0.72696350  0.26627900  0.66389800  1
  O  O32  1  0.50000000  0.83625900  0.88945100  1
  O  O33  1  0.50000000  0.16374100  0.38945100  1
  O  O34  1  0.27303650  0.73372100  0.16389800  1
  O  O35  1  0.72696350  0.73372100  0.16389800  1
  O  O36  1  0.50000000  0.68153550  0.39821000  1
  O  O37  1  0.24632100  0.57051750  0.89731700  1
  O  O38  1  0.50000000  0.51672750  0.16959900  1
  O  O39  1  0.75367900  0.57051750  0.89731700  1
  O  O40  1  0.74632100  0.92948250  0.39731700  1
  O  O41  1  0.00000000  0.98327250  0.66959900  1
  O  O42  1  0.00000000  0.81846450  0.89821000  1
  O  O43  1  0.00000000  0.51341700  0.68578600  1
  O  O44  1  0.00000000  0.48658300  0.18578600  1
  O  O45  1  0.25367900  0.92948250  0.39731700  1
  O  O46  1  0.77303650  0.76627900  0.66389800  1
  O  O47  1  0.22696350  0.76627900  0.66389800  1
  O  O48  1  0.00000000  0.33625900  0.88945100  1
  O  O49  1  0.00000000  0.66374100  0.38945100  1
  O  O50  1  0.77303650  0.23372100  0.16389800  1
  O  O51  1  0.22696350  0.23372100  0.16389800  1
  O  O52  1  0.00000000  0.18153550  0.39821000  1
  O  O53  1  0.74632100  0.07051750  0.89731700  1
  O  O54  1  0.00000000  0.01672750  0.16959900  1
  O  O55  1  0.25367900  0.07051750  0.89731700  1
