# generated using pymatgen
data_V2O3F
_symmetry_space_group_name_H-M   'P 1'
_cell_length_a   5.53277091
_cell_length_b   4.58237800
_cell_length_c   10.39890818
_cell_angle_alpha   90.00000000
_cell_angle_beta   98.19929126
_cell_angle_gamma   90.00000000
_symmetry_Int_Tables_number   1
_chemical_formula_structural   V2O3F
_chemical_formula_sum   'V8 O12 F4'
_cell_volume   260.95110315
_cell_formula_units_Z   4
loop_
 _symmetry_equiv_pos_site_id
 _symmetry_equiv_pos_as_xyz
  1  'x, y, z'
loop_
 _atom_site_type_symbol
 _atom_site_label
 _atom_site_symmetry_multiplicity
 _atom_site_fract_x
 _atom_site_fract_y
 _atom_site_fract_z
 _atom_site_occupancy
  V  V0  1  0.50000000  0.50000000  0.50000000  1
  V  V1  1  0.74680600  0.51879600  0.23776050  1
  V  V2  1  0.00000000  0.50000000  0.00000000  1
  V  V3  1  0.25319400  0.48120400  0.76223950  1
  V  V4  1  0.00000000  0.00000000  0.50000000  1
  V  V5  1  0.50000000  0.00000000  0.00000000  1
  V  V6  1  0.74680600  0.98120400  0.73776050  1
  V  V7  1  0.25319400  0.01879600  0.26223950  1
  O  O8  1  0.47456900  0.79389300  0.82034850  1
  O  O9  1  0.72565600  0.80643900  0.57397350  1
  O  O10  1  0.97389900  0.79158900  0.32558150  1
  O  O11  1  0.72565600  0.69356100  0.07397350  1
  O  O12  1  0.47456900  0.70610700  0.32034850  1
  O  O13  1  0.97389900  0.70841100  0.82558150  1
  O  O14  1  0.02610100  0.29158900  0.17441850  1
  O  O15  1  0.52543100  0.29389300  0.67965150  1
  O  O16  1  0.27434400  0.30643900  0.92602650  1
  O  O17  1  0.52543100  0.20610700  0.17965150  1
  O  O18  1  0.27434400  0.19356100  0.42602650  1
  O  O19  1  0.02610100  0.20841100  0.67441850  1
  F  F20  1  0.22343500  0.80740000  0.07949750  1
  F  F21  1  0.22343500  0.69260000  0.57949750  1
  F  F22  1  0.77656500  0.30740000  0.42050250  1
  F  F23  1  0.77656500  0.19260000  0.92050250  1
