# generated using pymatgen
data_MnF3
_symmetry_space_group_name_H-M   'P 1'
_cell_length_a   5.58738000
_cell_length_b   8.87067000
_cell_length_c   4.77170269
_cell_angle_alpha   90.00000000
_cell_angle_beta   90.83250287
_cell_angle_gamma   90.00000000
_symmetry_Int_Tables_number   1
_chemical_formula_structural   MnF3
_chemical_formula_sum   'Mn4 F12'
_cell_volume   236.47877277
_cell_formula_units_Z   4
loop_
 _symmetry_equiv_pos_site_id
 _symmetry_equiv_pos_as_xyz
  1  'x, y, z'
loop_
 _atom_site_type_symbol
 _atom_site_label
 _atom_site_symmetry_multiplicity
 _atom_site_fract_x
 _atom_site_fract_y
 _atom_site_fract_z
 _atom_site_occupancy
  Mn  Mn0  1  0.50000000  0.16985800  0.50000000  1
  Mn  Mn1  1  0.50000000  0.83014200  0.50000000  1
  Mn  Mn2  1  0.00000000  0.66985800  0.50000000  1
  Mn  Mn3  1  0.00000000  0.33014200  0.50000000  1
  F  F4  1  0.33603700  0.31352300  0.28445400  1
  F  F5  1  0.33603700  0.68647700  0.28445400  1
  F  F6  1  0.37967000  0.00000000  0.28180900  1
  F  F7  1  0.62033000  0.00000000  0.71819100  1
  F  F8  1  0.66396300  0.31352300  0.71554600  1
  F  F9  1  0.66396300  0.68647700  0.71554600  1
  F  F10  1  0.83603700  0.81352300  0.28445400  1
  F  F11  1  0.83603700  0.18647700  0.28445400  1
  F  F12  1  0.87967000  0.50000000  0.28180900  1
  F  F13  1  0.12033000  0.50000000  0.71819100  1
  F  F14  1  0.16396300  0.81352300  0.71554600  1
  F  F15  1  0.16396300  0.18647700  0.71554600  1
