# generated using pymatgen
data_Li4Mn5CuO12
_symmetry_space_group_name_H-M   'P 1'
_cell_length_a   5.09610643
_cell_length_b   8.95949399
_cell_length_c   10.26539430
_cell_angle_alpha   90.00000000
_cell_angle_beta   91.83302732
_cell_angle_gamma   90.00000000
_symmetry_Int_Tables_number   1
_chemical_formula_structural   Li4Mn5CuO12
_chemical_formula_sum   'Li8 Mn10 Cu2 O24'
_cell_volume   468.46302320
_cell_formula_units_Z   2
loop_
 _symmetry_equiv_pos_site_id
 _symmetry_equiv_pos_as_xyz
  1  'x, y, z'
loop_
 _atom_site_type_symbol
 _atom_site_label
 _atom_site_symmetry_multiplicity
 _atom_site_fract_x
 _atom_site_fract_y
 _atom_site_fract_z
 _atom_site_occupancy
  Li  Li0  1  0.58712600  0.75006400  0.75028100  1
  Li  Li1  1  0.41287400  0.75006400  0.24971900  1
  Li  Li2  1  0.09019800  0.75410500  0.75002000  1
  Li  Li3  1  0.90980200  0.75410500  0.24998000  1
  Li  Li4  1  0.08712600  0.25006400  0.75028100  1
  Li  Li5  1  0.91287400  0.25006400  0.24971900  1
  Li  Li6  1  0.59019800  0.25410500  0.75002000  1
  Li  Li7  1  0.40980200  0.25410500  0.24998000  1
  Mn  Mn8  1  0.50000000  0.66778400  0.00000000  1
  Mn  Mn9  1  0.00000000  0.66547050  0.50000000  1
  Mn  Mn10  1  0.50000000  0.83654200  0.50000000  1
  Mn  Mn11  1  0.00000000  0.83958250  0.00000000  1
  Mn  Mn12  1  0.50000000  0.00006200  0.00000000  1
  Mn  Mn13  1  0.00000000  0.16778400  0.00000000  1
  Mn  Mn14  1  0.50000000  0.16547050  0.50000000  1
  Mn  Mn15  1  0.00000000  0.33654200  0.50000000  1
  Mn  Mn16  1  0.50000000  0.33958250  0.00000000  1
  Mn  Mn17  1  0.00000000  0.50006200  0.00000000  1
  Cu  Cu18  1  0.50000000  0.50117400  0.50000000  1
  Cu  Cu19  1  0.00000000  0.00117400  0.50000000  1
  O  O20  1  0.67757550  0.68894450  0.39350800  1
  O  O21  1  0.32242450  0.68894450  0.60649200  1
  O  O22  1  0.65414650  0.81768250  0.11185600  1
  O  O23  1  0.18478800  0.67993300  0.10447200  1
  O  O24  1  0.34585350  0.81768250  0.88814400  1
  O  O25  1  0.32615300  0.50406500  0.90778300  1
  O  O26  1  0.81521200  0.67993300  0.89552800  1
  O  O27  1  0.17625650  0.81426650  0.39307600  1
  O  O28  1  0.15913400  0.50159000  0.40858500  1
  O  O29  1  0.82374350  0.81426650  0.60692400  1
  O  O30  1  0.84086600  0.50159000  0.59141500  1
  O  O31  1  0.67384700  0.50406500  0.09221700  1
  O  O32  1  0.17757550  0.18894450  0.39350800  1
  O  O33  1  0.82242450  0.18894450  0.60649200  1
  O  O34  1  0.15414650  0.31768250  0.11185600  1
  O  O35  1  0.68478800  0.17993300  0.10447200  1
  O  O36  1  0.84585350  0.31768250  0.88814400  1
  O  O37  1  0.82615300  0.00406500  0.90778300  1
  O  O38  1  0.31521200  0.17993300  0.89552800  1
  O  O39  1  0.67625650  0.31426650  0.39307600  1
  O  O40  1  0.65913400  0.00159000  0.40858500  1
  O  O41  1  0.32374350  0.31426650  0.60692400  1
  O  O42  1  0.34086600  0.00159000  0.59141500  1
  O  O43  1  0.17384700  0.00406500  0.09221700  1
