# generated using pymatgen
data_LiMn2OF3
_symmetry_space_group_name_H-M   'P 1'
_cell_length_a   6.30334215
_cell_length_b   6.30334215
_cell_length_c   15.57157666
_cell_angle_alpha   90.00000000
_cell_angle_beta   90.00000000
_cell_angle_gamma   120.00000000
_symmetry_Int_Tables_number   1
_chemical_formula_structural   LiMn2OF3
_chemical_formula_sum   'Li6 Mn12 O6 F18'
_cell_volume   535.80280470
_cell_formula_units_Z   6
loop_
 _symmetry_equiv_pos_site_id
 _symmetry_equiv_pos_as_xyz
  1  'x, y, z'
loop_
 _atom_site_type_symbol
 _atom_site_label
 _atom_site_symmetry_multiplicity
 _atom_site_fract_x
 _atom_site_fract_y
 _atom_site_fract_z
 _atom_site_occupancy
  Li  Li0  1  0.33333333  0.66666667  0.16469267  1
  Li  Li1  1  0.00000000  0.00000000  0.14244833  1
  Li  Li2  1  0.00000000  0.00000000  0.49802600  1
  Li  Li3  1  0.66666667  0.33333333  0.47578167  1
  Li  Li4  1  0.66666667  0.33333333  0.83135933  1
  Li  Li5  1  0.33333333  0.66666667  0.80911500  1
  Mn  Mn6  1  0.00742600  0.50371300  0.00119100  1
  Mn  Mn7  1  0.49628700  0.50371300  0.00119100  1
  Mn  Mn8  1  0.66666667  0.33333333  0.18766867  1
  Mn  Mn9  1  0.49628700  0.99257400  0.00119100  1
  Mn  Mn10  1  0.67409267  0.83704633  0.33452433  1
  Mn  Mn11  1  0.16295367  0.83704633  0.33452433  1
  Mn  Mn12  1  0.33333333  0.66666667  0.52100200  1
  Mn  Mn13  1  0.16295367  0.32590733  0.33452433  1
  Mn  Mn14  1  0.34075933  0.17037967  0.66785767  1
  Mn  Mn15  1  0.82962033  0.17037967  0.66785767  1
  Mn  Mn16  1  0.00000000  0.00000000  0.85433533  1
  Mn  Mn17  1  0.82962033  0.65924067  0.66785767  1
  O  O18  1  0.00000000  0.00000000  0.26945600  1
  O  O19  1  0.66666667  0.33333333  0.06011733  1
  O  O20  1  0.66666667  0.33333333  0.60278933  1
  O  O21  1  0.33333333  0.66666667  0.39345067  1
  O  O22  1  0.33333333  0.66666667  0.93612267  1
  O  O23  1  0.00000000  0.00000000  0.72678400  1
  F  F24  1  0.17289883  0.34579767  0.09063367  1
  F  F25  1  0.65420233  0.82710117  0.09063367  1
  F  F26  1  0.17289883  0.82710117  0.09063367  1
  F  F27  1  0.49312483  0.50687517  0.24469667  1
  F  F28  1  0.01375033  0.50687517  0.24469667  1
  F  F29  1  0.49312483  0.98624967  0.24469667  1
  F  F30  1  0.83956550  0.67913100  0.42396700  1
  F  F31  1  0.32086900  0.16043450  0.42396700  1
  F  F32  1  0.83956550  0.16043450  0.42396700  1
  F  F33  1  0.15979150  0.84020850  0.57803000  1
  F  F34  1  0.68041700  0.84020850  0.57803000  1
  F  F35  1  0.15979150  0.31958300  0.57803000  1
  F  F36  1  0.50623217  0.01246433  0.75730033  1
  F  F37  1  0.98753567  0.49376783  0.75730033  1
  F  F38  1  0.50623217  0.49376783  0.75730033  1
  F  F39  1  0.82645817  0.17354183  0.91136333  1
  F  F40  1  0.34708367  0.17354183  0.91136333  1
  F  F41  1  0.82645817  0.65291633  0.91136333  1
