# generated using pymatgen
data_LiV2F7
_symmetry_space_group_name_H-M   'P 1'
_cell_length_a   7.12570200
_cell_length_b   7.53827600
_cell_length_c   10.75040000
_cell_angle_alpha   90.00000000
_cell_angle_beta   90.00000000
_cell_angle_gamma   90.00000000
_symmetry_Int_Tables_number   1
_chemical_formula_structural   LiV2F7
_chemical_formula_sum   'Li4 V8 F28'
_cell_volume   577.46320118
_cell_formula_units_Z   4
loop_
 _symmetry_equiv_pos_site_id
 _symmetry_equiv_pos_as_xyz
  1  'x, y, z'
loop_
 _atom_site_type_symbol
 _atom_site_label
 _atom_site_symmetry_multiplicity
 _atom_site_fract_x
 _atom_site_fract_y
 _atom_site_fract_z
 _atom_site_occupancy
  Li  Li0  1  0.50000000  0.50000000  0.00000000  1
  Li  Li1  1  0.00000000  0.00000000  0.00000000  1
  Li  Li2  1  0.00000000  0.00000000  0.50000000  1
  Li  Li3  1  0.50000000  0.50000000  0.50000000  1
  V  V4  1  0.75000000  0.25000000  0.75000000  1
  V  V5  1  0.25000000  0.25000000  0.25000000  1
  V  V6  1  0.50000000  0.00000000  0.00000000  1
  V  V7  1  0.00000000  0.50000000  0.00000000  1
  V  V8  1  0.25000000  0.75000000  0.25000000  1
  V  V9  1  0.75000000  0.75000000  0.75000000  1
  V  V10  1  0.00000000  0.50000000  0.50000000  1
  V  V11  1  0.50000000  0.00000000  0.50000000  1
  F  F12  1  0.74447800  0.50000000  0.45011500  1
  F  F13  1  0.06373550  0.69752450  0.12110250  1
  F  F14  1  0.06373550  0.30247550  0.12110250  1
  F  F15  1  0.25552200  0.50000000  0.95011500  1
  F  F16  1  0.34453600  0.50000000  0.25000000  1
  F  F17  1  0.43626450  0.19752450  0.12110250  1
  F  F18  1  0.43626450  0.80247550  0.12110250  1
  F  F19  1  0.56373550  0.19752450  0.87889750  1
  F  F20  1  0.56373550  0.80247550  0.87889750  1
  F  F21  1  0.65546400  0.50000000  0.75000000  1
  F  F22  1  0.74447800  0.50000000  0.04988500  1
  F  F23  1  0.93626450  0.69752450  0.87889750  1
  F  F24  1  0.93626450  0.30247550  0.87889750  1
  F  F25  1  0.25552200  0.50000000  0.54988500  1
  F  F26  1  0.24447800  0.00000000  0.95011500  1
  F  F27  1  0.56373550  0.19752450  0.62110250  1
  F  F28  1  0.56373550  0.80247550  0.62110250  1
  F  F29  1  0.75552200  0.00000000  0.45011500  1
  F  F30  1  0.84453600  0.00000000  0.75000000  1
  F  F31  1  0.93626450  0.69752450  0.62110250  1
  F  F32  1  0.93626450  0.30247550  0.62110250  1
  F  F33  1  0.06373550  0.69752450  0.37889750  1
  F  F34  1  0.06373550  0.30247550  0.37889750  1
  F  F35  1  0.15546400  0.00000000  0.25000000  1
  F  F36  1  0.24447800  0.00000000  0.54988500  1
  F  F37  1  0.43626450  0.19752450  0.37889750  1
  F  F38  1  0.43626450  0.80247550  0.37889750  1
  F  F39  1  0.75552200  0.00000000  0.04988500  1
