# generated using pymatgen
data_Fe9Cu3O16
_symmetry_space_group_name_H-M   'P 1'
_cell_length_a   6.01963533
_cell_length_b   6.05804827
_cell_length_c   8.51824443
_cell_angle_alpha   90.41008551
_cell_angle_beta   90.81328254
_cell_angle_gamma   90.58919085
_symmetry_Int_Tables_number   1
_chemical_formula_structural   Fe9Cu3O16
_chemical_formula_sum   'Fe9 Cu3 O16'
_cell_volume   310.58087419
_cell_formula_units_Z   1
loop_
 _symmetry_equiv_pos_site_id
 _symmetry_equiv_pos_as_xyz
  1  'x, y, z'
loop_
 _atom_site_type_symbol
 _atom_site_label
 _atom_site_symmetry_multiplicity
 _atom_site_fract_x
 _atom_site_fract_y
 _atom_site_fract_z
 _atom_site_occupancy
  Fe  Fe0  1  0.99098200  0.75510400  0.87421600  1
  Fe  Fe1  1  0.50759800  0.74665100  0.62800100  1
  Fe  Fe2  1  0.49240200  0.25334900  0.37199900  1
  Fe  Fe3  1  0.25119500  0.74667300  0.24647600  1
  Fe  Fe4  1  0.00901800  0.24489600  0.12578400  1
  Fe  Fe5  1  0.00000000  0.00000000  0.50000000  1
  Fe  Fe6  1  0.74880500  0.25332700  0.75352400  1
  Fe  Fe7  1  0.50000000  0.00000000  0.00000000  1
  Fe  Fe8  1  0.00000000  0.50000000  0.50000000  1
  Cu  Cu9  1  0.74921500  0.74733500  0.24740400  1
  Cu  Cu10  1  0.50000000  0.50000000  0.00000000  1
  Cu  Cu11  1  0.25078500  0.25266500  0.75259600  1
  O  O12  1  0.23408300  0.75128900  0.49317000  1
  O  O13  1  0.00796800  0.98737700  0.26137900  1
  O  O14  1  0.76956900  0.74890800  0.49730900  1
  O  O15  1  0.74518700  0.23812100  0.99154300  1
  O  O16  1  0.50802300  0.48601700  0.74919100  1
  O  O17  1  0.50952900  0.00873100  0.75853700  1
  O  O18  1  0.49047100  0.99126900  0.24146300  1
  O  O19  1  0.26615900  0.24457700  0.99739000  1
  O  O20  1  0.23043100  0.25109200  0.50269100  1
  O  O21  1  0.00994900  0.50764700  0.25967400  1
  O  O22  1  0.99203200  0.01262300  0.73862100  1
  O  O23  1  0.99005100  0.49235300  0.74032600  1
  O  O24  1  0.76591700  0.24871100  0.50683000  1
  O  O25  1  0.73384100  0.75542300  0.00261000  1
  O  O26  1  0.49197700  0.51398300  0.25080900  1
  O  O27  1  0.25481300  0.76187900  0.00845700  1
