# generated using pymatgen
data_NaNiPO4
_symmetry_space_group_name_H-M   'P 1'
_cell_length_a   4.68862300
_cell_length_b   6.45840401
_cell_length_c   11.38230301
_cell_angle_alpha   90.00000000
_cell_angle_beta   90.00000000
_cell_angle_gamma   90.00000000
_symmetry_Int_Tables_number   1
_chemical_formula_structural   NaNiPO4
_chemical_formula_sum   'Na4 Ni4 P4 O16'
_cell_volume   344.66776297
_cell_formula_units_Z   4
loop_
 _symmetry_equiv_pos_site_id
 _symmetry_equiv_pos_as_xyz
  1  'x, y, z'
loop_
 _atom_site_type_symbol
 _atom_site_label
 _atom_site_symmetry_multiplicity
 _atom_site_fract_x
 _atom_site_fract_y
 _atom_site_fract_z
 _atom_site_occupancy
  Na  Na0  1  0.97684100  0.25000000  0.22218000  1
  Na  Na1  1  0.47684100  0.75000000  0.27782000  1
  Na  Na2  1  0.52315900  0.25000000  0.72218000  1
  Na  Na3  1  0.02315900  0.75000000  0.77782000  1
  Ni  Ni4  1  0.50000000  0.00000000  0.00000000  1
  Ni  Ni5  1  0.00000000  0.00000000  0.50000000  1
  Ni  Ni6  1  0.50000000  0.50000000  0.00000000  1
  Ni  Ni7  1  0.00000000  0.50000000  0.50000000  1
  P  P8  1  0.90535900  0.75000000  0.07948400  1
  P  P9  1  0.40535900  0.25000000  0.42051600  1
  P  P10  1  0.59464100  0.75000000  0.57948400  1
  P  P11  1  0.09464100  0.25000000  0.92051600  1
  O  O12  1  0.24504600  0.25000000  0.04649300  1
  O  O13  1  0.74504600  0.75000000  0.45350700  1
  O  O14  1  0.25495400  0.25000000  0.54649300  1
  O  O15  1  0.75495400  0.75000000  0.95350700  1
  O  O16  1  0.23616400  0.75000000  0.07174500  1
  O  O17  1  0.73616400  0.25000000  0.42825500  1
  O  O18  1  0.26383600  0.75000000  0.57174500  1
  O  O19  1  0.76383600  0.25000000  0.92825500  1
  O  O20  1  0.78746500  0.94788800  0.13954100  1
  O  O21  1  0.78746500  0.55211200  0.13954100  1
  O  O22  1  0.28746500  0.44788800  0.36045900  1
  O  O23  1  0.28746500  0.05211200  0.36045900  1
  O  O24  1  0.71253500  0.55211200  0.63954100  1
  O  O25  1  0.71253500  0.94788800  0.63954100  1
  O  O26  1  0.21253500  0.05211200  0.86045900  1
  O  O27  1  0.21253500  0.44788800  0.86045900  1
