# generated using pymatgen
data_Li2Mn3SnO8
_symmetry_space_group_name_H-M   'P 1'
_cell_length_a   8.72627450
_cell_length_b   8.72627450
_cell_length_c   8.34768000
_cell_angle_alpha   90.00000000
_cell_angle_beta   90.00000000
_cell_angle_gamma   90.00000000
_symmetry_Int_Tables_number   1
_chemical_formula_structural   Li2Mn3SnO8
_chemical_formula_sum   'Li8 Mn12 Sn4 O32'
_cell_volume   635.65802347
_cell_formula_units_Z   4
loop_
 _symmetry_equiv_pos_site_id
 _symmetry_equiv_pos_as_xyz
  1  'x, y, z'
loop_
 _atom_site_type_symbol
 _atom_site_label
 _atom_site_symmetry_multiplicity
 _atom_site_fract_x
 _atom_site_fract_y
 _atom_site_fract_z
 _atom_site_occupancy
  Li  Li0  1  0.74627300  0.49913800  0.87478900  1
  Li  Li1  1  0.50086200  0.25372700  0.62521100  1
  Li  Li2  1  0.00086200  0.24627300  0.12478900  1
  Li  Li3  1  0.24627300  0.00086200  0.87521100  1
  Li  Li4  1  0.75372700  0.99913800  0.37521100  1
  Li  Li5  1  0.99913800  0.75372700  0.62478900  1
  Li  Li6  1  0.49913800  0.74627300  0.12521100  1
  Li  Li7  1  0.25372700  0.50086200  0.37478900  1
  Mn  Mn8  1  0.12673900  0.37746400  0.74169300  1
  Mn  Mn9  1  0.87746400  0.37326100  0.49169300  1
  Mn  Mn10  1  0.62832500  0.37167500  0.25000000  1
  Mn  Mn11  1  0.12832500  0.12832500  0.50000000  1
  Mn  Mn12  1  0.37746400  0.12673900  0.25830700  1
  Mn  Mn13  1  0.62673900  0.12253600  0.00830700  1
  Mn  Mn14  1  0.37326100  0.87746400  0.50830700  1
  Mn  Mn15  1  0.62253600  0.87326100  0.75830700  1
  Mn  Mn16  1  0.87167500  0.87167500  0.00000000  1
  Mn  Mn17  1  0.37167500  0.62832500  0.75000000  1
  Mn  Mn18  1  0.12253600  0.62673900  0.99169300  1
  Mn  Mn19  1  0.87326100  0.62253600  0.24169300  1
  Sn  Sn20  1  0.37467300  0.37467300  0.00000000  1
  Sn  Sn21  1  0.87467300  0.12532700  0.75000000  1
  Sn  Sn22  1  0.12532700  0.87467300  0.25000000  1
  Sn  Sn23  1  0.62532700  0.62532700  0.50000000  1
  O  O24  1  0.37198600  0.40338000  0.75285200  1
  O  O25  1  0.13497700  0.37973600  0.97556500  1
  O  O26  1  0.85472500  0.38545400  0.25941200  1
  O  O27  1  0.87973600  0.36502300  0.72556500  1
  O  O28  1  0.64023000  0.38190700  0.48189000  1
  O  O29  1  0.11454600  0.35472500  0.50941200  1
  O  O30  1  0.40338000  0.37198600  0.24714800  1
  O  O31  1  0.61809300  0.35977000  0.01811000  1
  O  O32  1  0.11809300  0.14023000  0.73189000  1
  O  O33  1  0.90338000  0.12801400  0.50285200  1
  O  O34  1  0.61454600  0.14527500  0.24058800  1
  O  O35  1  0.14023000  0.11809300  0.26811000  1
  O  O36  1  0.37973600  0.13497700  0.02443500  1
  O  O37  1  0.35472500  0.11454600  0.49058800  1
  O  O38  1  0.63497700  0.12026400  0.77443500  1
  O  O39  1  0.87198600  0.09662000  0.99714800  1
  O  O40  1  0.12801400  0.90338000  0.49714800  1
  O  O41  1  0.36502300  0.87973600  0.27443500  1
  O  O42  1  0.64527500  0.88545400  0.99058800  1
  O  O43  1  0.62026400  0.86502300  0.52443500  1
  O  O44  1  0.85977000  0.88190700  0.76811000  1
  O  O45  1  0.38545400  0.85472500  0.74058800  1
  O  O46  1  0.09662000  0.87198600  0.00285200  1
  O  O47  1  0.88190700  0.85977000  0.23189000  1
  O  O48  1  0.38190700  0.64023000  0.51811000  1
  O  O49  1  0.59662000  0.62801400  0.74714800  1
  O  O50  1  0.88545400  0.64527500  0.00941200  1
  O  O51  1  0.35977000  0.61809300  0.98189000  1
  O  O52  1  0.12026400  0.63497700  0.22556500  1
  O  O53  1  0.14527500  0.61454600  0.75941200  1
  O  O54  1  0.86502300  0.62026400  0.47556500  1
  O  O55  1  0.62801400  0.59662000  0.25285200  1
