# generated using pymatgen
data_CrPO5
_symmetry_space_group_name_H-M   'P 1'
_cell_length_a   5.92085105
_cell_length_b   5.92085105
_cell_length_c   5.14295900
_cell_angle_alpha   90.00000000
_cell_angle_beta   90.00000000
_cell_angle_gamma   90.00000000
_symmetry_Int_Tables_number   1
_chemical_formula_structural   CrPO5
_chemical_formula_sum   'Cr2 P2 O10'
_cell_volume   180.29402472
_cell_formula_units_Z   2
loop_
 _symmetry_equiv_pos_site_id
 _symmetry_equiv_pos_as_xyz
  1  'x, y, z'
loop_
 _atom_site_type_symbol
 _atom_site_label
 _atom_site_symmetry_multiplicity
 _atom_site_fract_x
 _atom_site_fract_y
 _atom_site_fract_z
 _atom_site_occupancy
  Cr  Cr0  1  0.50000000  0.00000000  0.76668700  1
  Cr  Cr1  1  0.00000000  0.50000000  0.23331300  1
  P  P2  1  0.00000000  0.00000000  0.50000000  1
  P  P3  1  0.50000000  0.50000000  0.50000000  1
  O  O4  1  0.50000000  0.00000000  0.07318850  1
  O  O5  1  0.00000000  0.50000000  0.92681150  1
  O  O6  1  0.07075100  0.80089100  0.32403100  1
  O  O7  1  0.80089100  0.92924900  0.67596900  1
  O  O8  1  0.19910900  0.07075100  0.67596900  1
  O  O9  1  0.92924900  0.19910900  0.32403100  1
  O  O10  1  0.57075100  0.30089100  0.67596900  1
  O  O11  1  0.30089100  0.42924900  0.32403100  1
  O  O12  1  0.69910900  0.57075100  0.32403100  1
  O  O13  1  0.42924900  0.69910900  0.67596900  1
