# generated using pymatgen
data_LiNiPO4
_symmetry_space_group_name_H-M   'P 1'
_cell_length_a   5.10515625
_cell_length_b   7.97059733
_cell_length_c   8.27530500
_cell_angle_alpha   90.00000000
_cell_angle_beta   90.00000000
_cell_angle_gamma   90.00000000
_symmetry_Int_Tables_number   1
_chemical_formula_structural   LiNiPO4
_chemical_formula_sum   'Li4 Ni4 P4 O16'
_cell_volume   336.73163378
_cell_formula_units_Z   4
loop_
 _symmetry_equiv_pos_site_id
 _symmetry_equiv_pos_as_xyz
  1  'x, y, z'
loop_
 _atom_site_type_symbol
 _atom_site_label
 _atom_site_symmetry_multiplicity
 _atom_site_fract_x
 _atom_site_fract_y
 _atom_site_fract_z
 _atom_site_occupancy
  Li  Li0  1  0.34444800  0.52988050  0.69603850  1
  Li  Li1  1  0.34444800  0.02988050  0.80396150  1
  Li  Li2  1  0.84444800  0.97011950  0.19603850  1
  Li  Li3  1  0.84444800  0.47011950  0.30396150  1
  Ni  Ni4  1  0.46533700  0.66314750  0.05383650  1
  Ni  Ni5  1  0.46533700  0.16314750  0.44616350  1
  Ni  Ni6  1  0.96533700  0.83685250  0.55383650  1
  Ni  Ni7  1  0.96533700  0.33685250  0.94616350  1
  P  P8  1  0.00446800  0.25027550  0.57290950  1
  P  P9  1  0.00446800  0.75027550  0.92709050  1
  P  P10  1  0.50446800  0.24972450  0.07290950  1
  P  P11  1  0.50446800  0.74972450  0.42709050  1
  O  O12  1  0.25081900  0.36052250  0.54687850  1
  O  O13  1  0.25081900  0.86052250  0.95312150  1
  O  O14  1  0.75081900  0.13947750  0.04687850  1
  O  O15  1  0.75081900  0.63947750  0.45312150  1
  O  O16  1  0.32458300  0.74135750  0.57767150  1
  O  O17  1  0.32458300  0.24135750  0.92232850  1
  O  O18  1  0.82458300  0.75864250  0.07767150  1
  O  O19  1  0.82458300  0.25864250  0.42232850  1
  O  O20  1  0.13711100  0.06760150  0.58303650  1
  O  O21  1  0.13711100  0.56760150  0.91696350  1
  O  O22  1  0.63711100  0.43239850  0.08303650  1
  O  O23  1  0.63711100  0.93239850  0.41696350  1
  O  O24  1  0.84242100  0.29110950  0.72323250  1
  O  O25  1  0.84242100  0.79110950  0.77676750  1
  O  O26  1  0.34242100  0.20889050  0.22323250  1
  O  O27  1  0.34242100  0.70889050  0.27676750  1
