# generated using pymatgen
data_LiMn2F7
_symmetry_space_group_name_H-M   'P 1'
_cell_length_a   5.50049800
_cell_length_b   9.99551000
_cell_length_c   9.72529248
_cell_angle_alpha   90.00000000
_cell_angle_beta   106.09014557
_cell_angle_gamma   90.00000000
_symmetry_Int_Tables_number   1
_chemical_formula_structural   LiMn2F7
_chemical_formula_sum   'Li4 Mn8 F28'
_cell_volume   513.75346580
_cell_formula_units_Z   4
loop_
 _symmetry_equiv_pos_site_id
 _symmetry_equiv_pos_as_xyz
  1  'x, y, z'
loop_
 _atom_site_type_symbol
 _atom_site_label
 _atom_site_symmetry_multiplicity
 _atom_site_fract_x
 _atom_site_fract_y
 _atom_site_fract_z
 _atom_site_occupancy
  Li  Li0  1  0.65582800  0.75588800  0.83713700  1
  Li  Li1  1  0.15582800  0.74411200  0.33713700  1
  Li  Li2  1  0.15582800  0.25588800  0.83713700  1
  Li  Li3  1  0.65582800  0.24411200  0.33713700  1
  Mn  Mn4  1  0.72871350  0.95217450  0.42360900  1
  Mn  Mn5  1  0.28873700  0.96409100  0.06863900  1
  Mn  Mn6  1  0.22871350  0.54782550  0.92360900  1
  Mn  Mn7  1  0.78873700  0.53590900  0.56863900  1
  Mn  Mn8  1  0.22871350  0.45217450  0.42360900  1
  Mn  Mn9  1  0.78873700  0.46409100  0.06863900  1
  Mn  Mn10  1  0.72871350  0.04782550  0.92360900  1
  Mn  Mn11  1  0.28873700  0.03590900  0.56863900  1
  F  F12  1  0.97963250  0.91463850  0.59457500  1
  F  F13  1  0.02641450  0.53265250  0.24257100  1
  F  F14  1  0.62067250  0.89392050  0.00603000  1
  F  F15  1  0.03017350  0.91270350  0.90329100  1
  F  F16  1  0.32335800  0.68999400  0.83256800  1
  F  F17  1  0.82335800  0.81000600  0.33256800  1
  F  F18  1  0.12067250  0.60607950  0.50603000  1
  F  F19  1  0.37500950  0.88553750  0.46621300  1
  F  F20  1  0.73055450  0.68285050  0.66717700  1
  F  F21  1  0.23055450  0.81714950  0.16717700  1
  F  F22  1  0.47963250  0.58536150  0.09457500  1
  F  F23  1  0.87500950  0.61446250  0.96621300  1
  F  F24  1  0.52641450  0.96734750  0.74257100  1
  F  F25  1  0.53017350  0.58729650  0.40329100  1
  F  F26  1  0.47963250  0.41463850  0.59457500  1
  F  F27  1  0.52641450  0.03265250  0.24257100  1
  F  F28  1  0.12067250  0.39392050  0.00603000  1
  F  F29  1  0.53017350  0.41270350  0.90329100  1
  F  F30  1  0.82335800  0.18999400  0.83256800  1
  F  F31  1  0.32335800  0.31000600  0.33256800  1
  F  F32  1  0.62067250  0.10607950  0.50603000  1
  F  F33  1  0.87500950  0.38553750  0.46621300  1
  F  F34  1  0.23055450  0.18285050  0.66717700  1
  F  F35  1  0.73055450  0.31714950  0.16717700  1
  F  F36  1  0.97963250  0.08536150  0.09457500  1
  F  F37  1  0.37500950  0.11446250  0.96621300  1
  F  F38  1  0.02641450  0.46734750  0.74257100  1
  F  F39  1  0.03017350  0.08729650  0.40329100  1
