# generated using pymatgen
data_Li4Cr3Co3(NiO8)2
_symmetry_space_group_name_H-M   'P 1'
_cell_length_a   9.95799200
_cell_length_b   5.76753400
_cell_length_c   9.56453612
_cell_angle_alpha   90.00000000
_cell_angle_beta   90.00903358
_cell_angle_gamma   90.00000000
_symmetry_Int_Tables_number   1
_chemical_formula_structural   Li4Cr3Co3(NiO8)2
_chemical_formula_sum   'Li8 Cr6 Co6 Ni4 O32'
_cell_volume   549.32054540
_cell_formula_units_Z   2
loop_
 _symmetry_equiv_pos_site_id
 _symmetry_equiv_pos_as_xyz
  1  'x, y, z'
loop_
 _atom_site_type_symbol
 _atom_site_label
 _atom_site_symmetry_multiplicity
 _atom_site_fract_x
 _atom_site_fract_y
 _atom_site_fract_z
 _atom_site_occupancy
  Li  Li0  1  0.33008300  0.00000000  0.89153800  1
  Li  Li1  1  0.00525700  0.00000000  0.99643900  1
  Li  Li2  1  0.00468200  0.00000000  0.49887200  1
  Li  Li3  1  0.66317700  0.00000000  0.39622600  1
  Li  Li4  1  0.83008300  0.50000000  0.89153800  1
  Li  Li5  1  0.50525700  0.50000000  0.99643900  1
  Li  Li6  1  0.50468200  0.50000000  0.49887200  1
  Li  Li7  1  0.16317700  0.50000000  0.39622600  1
  Cr  Cr8  1  0.41612800  0.75236700  0.21443100  1
  Cr  Cr9  1  0.41612800  0.24763300  0.21443100  1
  Cr  Cr10  1  0.83134300  0.00000000  0.71444900  1
  Cr  Cr11  1  0.91612800  0.25236700  0.21443100  1
  Cr  Cr12  1  0.91612800  0.74763300  0.21443100  1
  Cr  Cr13  1  0.33134300  0.50000000  0.71444900  1
  Co  Co14  1  0.16935900  0.00000000  0.21418000  1
  Co  Co15  1  0.58411750  0.75287250  0.71347400  1
  Co  Co16  1  0.58411750  0.24712750  0.71347400  1
  Co  Co17  1  0.66935900  0.50000000  0.21418000  1
  Co  Co18  1  0.08411750  0.25287250  0.71347400  1
  Co  Co19  1  0.08411750  0.74712750  0.71347400  1
  Ni  Ni20  1  0.33339100  0.00000000  0.49150100  1
  Ni  Ni21  1  0.66687100  0.00000000  0.98932800  1
  Ni  Ni22  1  0.83339100  0.50000000  0.49150100  1
  Ni  Ni23  1  0.16687100  0.50000000  0.98932800  1
  O  O24  1  0.42173250  0.73845650  0.60879400  1
  O  O25  1  0.48158800  0.00000000  0.32878100  1
  O  O26  1  0.33069500  0.00000000  0.10407100  1
  O  O27  1  0.00496500  0.00000000  0.31458800  1
  O  O28  1  0.00499300  0.00000000  0.81166000  1
  O  O29  1  0.42173250  0.26154350  0.60879400  1
  O  O30  1  0.25708850  0.77852950  0.32893600  1
  O  O31  1  0.25708850  0.22147050  0.32893600  1
  O  O32  1  0.84057300  0.00000000  0.10789500  1
  O  O33  1  0.15911000  0.00000000  0.61285200  1
  O  O34  1  0.73896450  0.77592450  0.82668600  1
  O  O35  1  0.73896450  0.22407550  0.82668600  1
  O  O36  1  0.66271500  0.00000000  0.60735100  1
  O  O37  1  0.58084350  0.73731450  0.10943500  1
  O  O38  1  0.51832900  0.00000000  0.82460100  1
  O  O39  1  0.58084350  0.26268550  0.10943500  1
  O  O40  1  0.92173250  0.23845650  0.60879400  1
  O  O41  1  0.98158800  0.50000000  0.32878100  1
  O  O42  1  0.83069500  0.50000000  0.10407100  1
  O  O43  1  0.50496500  0.50000000  0.31458800  1
  O  O44  1  0.50499300  0.50000000  0.81166000  1
  O  O45  1  0.92173250  0.76154350  0.60879400  1
  O  O46  1  0.75708850  0.27852950  0.32893600  1
  O  O47  1  0.75708850  0.72147050  0.32893600  1
  O  O48  1  0.34057300  0.50000000  0.10789500  1
  O  O49  1  0.65911000  0.50000000  0.61285200  1
  O  O50  1  0.23896450  0.27592450  0.82668600  1
  O  O51  1  0.23896450  0.72407550  0.82668600  1
  O  O52  1  0.16271500  0.50000000  0.60735100  1
  O  O53  1  0.08084350  0.23731450  0.10943500  1
  O  O54  1  0.01832900  0.50000000  0.82460100  1
  O  O55  1  0.08084350  0.76268550  0.10943500  1
