# generated using pymatgen
data_CrSn(PO4)2
_symmetry_space_group_name_H-M   'P 1'
_cell_length_a   5.03134738
_cell_length_b   6.17050901
_cell_length_c   10.16117517
_cell_angle_alpha   90.00000000
_cell_angle_beta   91.10358047
_cell_angle_gamma   90.00000000
_symmetry_Int_Tables_number   1
_chemical_formula_structural   CrSn(PO4)2
_chemical_formula_sum   'Cr2 Sn2 P4 O16'
_cell_volume   315.40506845
_cell_formula_units_Z   2
loop_
 _symmetry_equiv_pos_site_id
 _symmetry_equiv_pos_as_xyz
  1  'x, y, z'
loop_
 _atom_site_type_symbol
 _atom_site_label
 _atom_site_symmetry_multiplicity
 _atom_site_fract_x
 _atom_site_fract_y
 _atom_site_fract_z
 _atom_site_occupancy
  Cr  Cr0  1  0.07566725  0.25000000  0.21756900  1
  Cr  Cr1  1  0.92433275  0.75000000  0.78243100  1
  Sn  Sn2  1  0.54269925  0.75000000  0.28292550  1
  Sn  Sn3  1  0.45730075  0.25000000  0.71707450  1
  P  P4  1  0.09890225  0.75000000  0.10073050  1
  P  P5  1  0.90109775  0.25000000  0.89926950  1
  P  P6  1  0.58773525  0.25000000  0.40345050  1
  P  P7  1  0.41226475  0.75000000  0.59654950  1
  O  O8  1  0.86197075  0.25000000  0.04575400  1
  O  O9  1  0.13802925  0.75000000  0.95424600  1
  O  O10  1  0.79824225  0.75000000  0.13037350  1
  O  O11  1  0.20175775  0.25000000  0.86962650  1
  O  O12  1  0.28759125  0.25000000  0.38903100  1
  O  O13  1  0.71240875  0.75000000  0.61096900  1
  O  O14  1  0.32372175  0.75000000  0.44885100  1
  O  O15  1  0.67627825  0.25000000  0.55114900  1
  O  O16  1  0.25074225  0.94180550  0.17399000  1
  O  O17  1  0.25074225  0.55819450  0.17399000  1
  O  O18  1  0.74925775  0.44180550  0.82601000  1
  O  O19  1  0.74925775  0.05819450  0.82601000  1
  O  O20  1  0.72215025  0.04950100  0.33425950  1
  O  O21  1  0.72215025  0.45049900  0.33425950  1
  O  O22  1  0.27784975  0.95049900  0.66574050  1
  O  O23  1  0.27784975  0.54950100  0.66574050  1
