# generated using pymatgen
data_Li9(CoO4)2
_symmetry_space_group_name_H-M   'P 1'
_cell_length_a   9.09815000
_cell_length_b   9.00078600
_cell_length_c   4.74285089
_cell_angle_alpha   90.00000000
_cell_angle_beta   90.82267076
_cell_angle_gamma   90.00000000
_symmetry_Int_Tables_number   1
_chemical_formula_structural   Li9(CoO4)2
_chemical_formula_sum   'Li18 Co4 O16'
_cell_volume   388.35440080
_cell_formula_units_Z   2
loop_
 _symmetry_equiv_pos_site_id
 _symmetry_equiv_pos_as_xyz
  1  'x, y, z'
loop_
 _atom_site_type_symbol
 _atom_site_label
 _atom_site_symmetry_multiplicity
 _atom_site_fract_x
 _atom_site_fract_y
 _atom_site_fract_z
 _atom_site_occupancy
  Li  Li0  1  0.50000000  0.56691200  0.50000000  1
  Li  Li1  1  0.24732550  0.99495750  0.42781900  1
  Li  Li2  1  0.27413550  0.99755450  0.93289300  1
  Li  Li3  1  0.50000000  0.95311700  0.50000000  1
  Li  Li4  1  0.28339650  0.24643950  0.99647000  1
  Li  Li5  1  0.72586450  0.99755450  0.06710700  1
  Li  Li6  1  0.75267450  0.99495750  0.57218100  1
  Li  Li7  1  0.71660350  0.24643950  0.00353000  1
  Li  Li8  1  0.50000000  0.47201900  0.00000000  1
  Li  Li9  1  0.00000000  0.06691200  0.50000000  1
  Li  Li10  1  0.74732550  0.49495750  0.42781900  1
  Li  Li11  1  0.77413550  0.49755450  0.93289300  1
  Li  Li12  1  0.00000000  0.45311700  0.50000000  1
  Li  Li13  1  0.78339650  0.74643950  0.99647000  1
  Li  Li14  1  0.22586450  0.49755450  0.06710700  1
  Li  Li15  1  0.25267450  0.49495750  0.57218100  1
  Li  Li16  1  0.21660350  0.74643950  0.00353000  1
  Li  Li17  1  0.00000000  0.97201900  0.00000000  1
  Co  Co18  1  0.50000000  0.75570300  0.00000000  1
  Co  Co19  1  0.50000000  0.25175800  0.50000000  1
  Co  Co20  1  0.00000000  0.25570300  0.00000000  1
  Co  Co21  1  0.00000000  0.75175800  0.50000000  1
  O  O22  1  0.61491700  0.38215400  0.71042200  1
  O  O23  1  0.36990500  0.87159300  0.19858800  1
  O  O24  1  0.13195100  0.11403500  0.17224900  1
  O  O25  1  0.38211150  0.12642050  0.68853000  1
  O  O26  1  0.63009500  0.87159300  0.80141200  1
  O  O27  1  0.61788850  0.12642050  0.31147000  1
  O  O28  1  0.38508300  0.38215400  0.28957800  1
  O  O29  1  0.86804900  0.11403500  0.82775100  1
  O  O30  1  0.11491700  0.88215400  0.71042200  1
  O  O31  1  0.86990500  0.37159300  0.19858800  1
  O  O32  1  0.63195100  0.61403500  0.17224900  1
  O  O33  1  0.88211150  0.62642050  0.68853000  1
  O  O34  1  0.13009500  0.37159300  0.80141200  1
  O  O35  1  0.11788850  0.62642050  0.31147000  1
  O  O36  1  0.88508300  0.88215400  0.28957800  1
  O  O37  1  0.36804900  0.61403500  0.82775100  1
