# generated using pymatgen
data_MnCd9O10
_symmetry_space_group_name_H-M   'P 1'
_cell_length_a   5.83448054
_cell_length_b   6.73546999
_cell_length_c   7.51915825
_cell_angle_alpha   102.96420729
_cell_angle_beta   97.29718174
_cell_angle_gamma   106.96552367
_symmetry_Int_Tables_number   1
_chemical_formula_structural   MnCd9O10
_chemical_formula_sum   'Mn1 Cd9 O10'
_cell_volume   269.48780857
_cell_formula_units_Z   1
loop_
 _symmetry_equiv_pos_site_id
 _symmetry_equiv_pos_as_xyz
  1  'x, y, z'
loop_
 _atom_site_type_symbol
 _atom_site_label
 _atom_site_symmetry_multiplicity
 _atom_site_fract_x
 _atom_site_fract_y
 _atom_site_fract_z
 _atom_site_occupancy
  Mn  Mn0  1  0.00000000  0.00000000  0.00000000  1
  Cd  Cd1  1  0.00000000  0.50000000  0.00000000  1
  Cd  Cd2  1  0.40061725  0.80164975  0.80021025  1
  Cd  Cd3  1  0.59938275  0.19835025  0.19978975  1
  Cd  Cd4  1  0.40489875  0.30022375  0.80266675  1
  Cd  Cd5  1  0.59510125  0.69977625  0.19733325  1
  Cd  Cd6  1  0.19913875  0.39850175  0.39845375  1
  Cd  Cd7  1  0.80086125  0.60149825  0.60154625  1
  Cd  Cd8  1  0.80337250  0.09954575  0.59897050  1
  Cd  Cd9  1  0.19662750  0.90045425  0.40102950  1
  O  O10  1  0.10346075  0.44993350  0.69931575  1
  O  O11  1  0.89653925  0.55006650  0.30068425  1
  O  O12  1  0.09780125  0.95251925  0.71088725  1
  O  O13  1  0.90219875  0.04748075  0.28911275  1
  O  O14  1  0.70974925  0.66348725  0.90503825  1
  O  O15  1  0.29025075  0.33651275  0.09496175  1
  O  O16  1  0.71501100  0.14431600  0.90423300  1
  O  O17  1  0.28498900  0.85568400  0.09576700  1
  O  O18  1  0.50208225  0.24993775  0.50416825  1
  O  O19  1  0.49791775  0.75006225  0.49583175  1
