# generated using pymatgen
data_NaTi2O4
_symmetry_space_group_name_H-M   'P 1'
_cell_length_a   8.71817400
_cell_length_b   8.71817400
_cell_length_c   8.71817400
_cell_angle_alpha   90.00000000
_cell_angle_beta   90.00000000
_cell_angle_gamma   90.00000000
_symmetry_Int_Tables_number   1
_chemical_formula_structural   NaTi2O4
_chemical_formula_sum   'Na8 Ti16 O32'
_cell_volume   662.63839686
_cell_formula_units_Z   8
loop_
 _symmetry_equiv_pos_site_id
 _symmetry_equiv_pos_as_xyz
  1  'x, y, z'
loop_
 _atom_site_type_symbol
 _atom_site_label
 _atom_site_symmetry_multiplicity
 _atom_site_fract_x
 _atom_site_fract_y
 _atom_site_fract_z
 _atom_site_occupancy
  Na  Na0  1  0.25000000  0.25000000  0.25000000  1
  Na  Na1  1  0.50000000  0.00000000  0.50000000  1
  Na  Na2  1  0.25000000  0.75000000  0.75000000  1
  Na  Na3  1  0.50000000  0.50000000  0.00000000  1
  Na  Na4  1  0.75000000  0.25000000  0.75000000  1
  Na  Na5  1  0.00000000  0.00000000  0.00000000  1
  Na  Na6  1  0.75000000  0.75000000  0.25000000  1
  Na  Na7  1  0.00000000  0.50000000  0.50000000  1
  Ti  Ti8  1  0.37500000  0.87500000  0.12500000  1
  Ti  Ti9  1  0.37500000  0.62500000  0.37500000  1
  Ti  Ti10  1  0.12500000  0.87500000  0.37500000  1
  Ti  Ti11  1  0.12500000  0.62500000  0.12500000  1
  Ti  Ti12  1  0.37500000  0.37500000  0.62500000  1
  Ti  Ti13  1  0.37500000  0.12500000  0.87500000  1
  Ti  Ti14  1  0.12500000  0.37500000  0.87500000  1
  Ti  Ti15  1  0.12500000  0.12500000  0.62500000  1
  Ti  Ti16  1  0.87500000  0.87500000  0.62500000  1
  Ti  Ti17  1  0.87500000  0.62500000  0.87500000  1
  Ti  Ti18  1  0.62500000  0.87500000  0.87500000  1
  Ti  Ti19  1  0.62500000  0.62500000  0.62500000  1
  Ti  Ti20  1  0.87500000  0.37500000  0.12500000  1
  Ti  Ti21  1  0.87500000  0.12500000  0.37500000  1
  Ti  Ti22  1  0.62500000  0.37500000  0.37500000  1
  Ti  Ti23  1  0.62500000  0.12500000  0.12500000  1
  O  O24  1  0.39329300  0.10670700  0.10670700  1
  O  O25  1  0.39329300  0.39329300  0.39329300  1
  O  O26  1  0.10670700  0.39329300  0.10670700  1
  O  O27  1  0.10670700  0.10670700  0.39329300  1
  O  O28  1  0.14329300  0.85670700  0.14329300  1
  O  O29  1  0.64329300  0.14329300  0.35670700  1
  O  O30  1  0.85670700  0.14329300  0.14329300  1
  O  O31  1  0.35670700  0.85670700  0.35670700  1
  O  O32  1  0.39329300  0.60670700  0.60670700  1
  O  O33  1  0.39329300  0.89329300  0.89329300  1
  O  O34  1  0.10670700  0.89329300  0.60670700  1
  O  O35  1  0.10670700  0.60670700  0.89329300  1
  O  O36  1  0.14329300  0.35670700  0.64329300  1
  O  O37  1  0.64329300  0.64329300  0.85670700  1
  O  O38  1  0.85670700  0.64329300  0.64329300  1
  O  O39  1  0.35670700  0.35670700  0.85670700  1
  O  O40  1  0.89329300  0.10670700  0.60670700  1
  O  O41  1  0.89329300  0.39329300  0.89329300  1
  O  O42  1  0.60670700  0.39329300  0.60670700  1
  O  O43  1  0.60670700  0.10670700  0.89329300  1
  O  O44  1  0.64329300  0.85670700  0.64329300  1
  O  O45  1  0.14329300  0.14329300  0.85670700  1
  O  O46  1  0.35670700  0.14329300  0.64329300  1
  O  O47  1  0.85670700  0.85670700  0.85670700  1
  O  O48  1  0.89329300  0.60670700  0.10670700  1
  O  O49  1  0.89329300  0.89329300  0.39329300  1
  O  O50  1  0.60670700  0.89329300  0.10670700  1
  O  O51  1  0.60670700  0.60670700  0.39329300  1
  O  O52  1  0.64329300  0.35670700  0.14329300  1
  O  O53  1  0.14329300  0.64329300  0.35670700  1
  O  O54  1  0.35670700  0.64329300  0.14329300  1
  O  O55  1  0.85670700  0.35670700  0.35670700  1
