# generated using pymatgen
data_Li2Fe3BiO8
_symmetry_space_group_name_H-M   'P 1'
_cell_length_a   6.08082215
_cell_length_b   6.08082215
_cell_length_c   15.57266072
_cell_angle_alpha   90.00000000
_cell_angle_beta   90.00000000
_cell_angle_gamma   120.00000000
_symmetry_Int_Tables_number   1
_chemical_formula_structural   Li2Fe3BiO8
_chemical_formula_sum   'Li6 Fe9 Bi3 O24'
_cell_volume   498.67552843
_cell_formula_units_Z   3
loop_
 _symmetry_equiv_pos_site_id
 _symmetry_equiv_pos_as_xyz
  1  'x, y, z'
loop_
 _atom_site_type_symbol
 _atom_site_label
 _atom_site_symmetry_multiplicity
 _atom_site_fract_x
 _atom_site_fract_y
 _atom_site_fract_z
 _atom_site_occupancy
  Li  Li0  1  0.33333333  0.66666667  0.53624900  1
  Li  Li1  1  0.66666667  0.33333333  0.46375100  1
  Li  Li2  1  0.00000000  0.00000000  0.86958233  1
  Li  Li3  1  0.33333333  0.66666667  0.79708433  1
  Li  Li4  1  0.66666667  0.33333333  0.20291567  1
  Li  Li5  1  0.00000000  0.00000000  0.13041767  1
  Fe  Fe6  1  0.83333333  0.16666667  0.66666667  1
  Fe  Fe7  1  0.83333333  0.66666667  0.66666667  1
  Fe  Fe8  1  0.66666667  0.83333333  0.33333333  1
  Fe  Fe9  1  0.50000000  0.50000000  0.00000000  1
  Fe  Fe10  1  0.50000000  0.00000000  0.00000000  1
  Fe  Fe11  1  0.33333333  0.16666667  0.66666667  1
  Fe  Fe12  1  0.16666667  0.83333333  0.33333333  1
  Fe  Fe13  1  0.16666667  0.33333333  0.33333333  1
  Fe  Fe14  1  0.00000000  0.50000000  0.00000000  1
  Bi  Bi15  1  0.00000000  0.00000000  0.50000000  1
  Bi  Bi16  1  0.66666667  0.33333333  0.83333333  1
  Bi  Bi17  1  0.33333333  0.66666667  0.16666667  1
  O  O18  1  0.66666667  0.33333333  0.60105017  1
  O  O19  1  0.33333333  0.66666667  0.39894983  1
  O  O20  1  0.15553417  0.31106833  0.58876383  1
  O  O21  1  0.15553417  0.84446583  0.58876383  1
  O  O22  1  0.68893167  0.84446583  0.58876383  1
  O  O23  1  0.31106833  0.15553417  0.41123617  1
  O  O24  1  0.84446583  0.15553417  0.41123617  1
  O  O25  1  0.84446583  0.68893167  0.41123617  1
  O  O26  1  0.33333333  0.66666667  0.93438350  1
  O  O27  1  0.00000000  0.00000000  0.73228317  1
  O  O28  1  0.82220083  0.64440167  0.92209717  1
  O  O29  1  0.82220083  0.17779917  0.92209717  1
  O  O30  1  0.35559833  0.17779917  0.92209717  1
  O  O31  1  0.97773500  0.48886750  0.74456950  1
  O  O32  1  0.51113250  0.48886750  0.74456950  1
  O  O33  1  0.51113250  0.02226500  0.74456950  1
  O  O34  1  0.00000000  0.00000000  0.26771683  1
  O  O35  1  0.66666667  0.33333333  0.06561650  1
  O  O36  1  0.48886750  0.97773500  0.25543050  1
  O  O37  1  0.48886750  0.51113250  0.25543050  1
  O  O38  1  0.02226500  0.51113250  0.25543050  1
  O  O39  1  0.64440167  0.82220083  0.07790283  1
  O  O40  1  0.17779917  0.82220083  0.07790283  1
  O  O41  1  0.17779917  0.35559833  0.07790283  1
