# generated using pymatgen
data_V3FeCu2(PO4)6
_symmetry_space_group_name_H-M   'P 1'
_cell_length_a   8.58861406
_cell_length_b   8.58861406
_cell_length_c   20.94640484
_cell_angle_alpha   90.00000000
_cell_angle_beta   90.00000000
_cell_angle_gamma   120.00000000
_symmetry_Int_Tables_number   1
_chemical_formula_structural   V3FeCu2(PO4)6
_chemical_formula_sum   'V9 Fe3 Cu6 P18 O72'
_cell_volume   1338.09300370
_cell_formula_units_Z   3
loop_
 _symmetry_equiv_pos_site_id
 _symmetry_equiv_pos_as_xyz
  1  'x, y, z'
loop_
 _atom_site_type_symbol
 _atom_site_label
 _atom_site_symmetry_multiplicity
 _atom_site_fract_x
 _atom_site_fract_y
 _atom_site_fract_z
 _atom_site_occupancy
  V  V0  1  0.33333333  0.66666667  0.30956067  1
  V  V1  1  0.33333333  0.66666667  0.52440767  1
  V  V2  1  0.33333333  0.66666667  0.02399567  1
  V  V3  1  0.00000000  0.00000000  0.64289400  1
  V  V4  1  0.00000000  0.00000000  0.85774100  1
  V  V5  1  0.00000000  0.00000000  0.35732900  1
  V  V6  1  0.66666667  0.33333333  0.97622733  1
  V  V7  1  0.66666667  0.33333333  0.19107433  1
  V  V8  1  0.66666667  0.33333333  0.69066233  1
  Fe  Fe9  1  0.33333333  0.66666667  0.80957267  1
  Fe  Fe10  1  0.00000000  0.00000000  0.14290600  1
  Fe  Fe11  1  0.66666667  0.33333333  0.47623933  1
  Cu  Cu12  1  0.33333333  0.66666667  0.66796267  1
  Cu  Cu13  1  0.33333333  0.66666667  0.16707767  1
  Cu  Cu14  1  0.00000000  0.00000000  0.00129600  1
  Cu  Cu15  1  0.00000000  0.00000000  0.50041100  1
  Cu  Cu16  1  0.66666667  0.33333333  0.33462933  1
  Cu  Cu17  1  0.66666667  0.33333333  0.83374433  1
  P  P18  1  0.29064300  0.99992500  0.24972600  1
  P  P19  1  0.00007500  0.29071800  0.24972600  1
  P  P20  1  0.70928200  0.70935700  0.24972600  1
  P  P21  1  0.95699233  0.62414467  0.08296467  1
  P  P22  1  0.66715233  0.04300767  0.08296467  1
  P  P23  1  0.37585533  0.33284767  0.08296467  1
  P  P24  1  0.95730967  0.33325833  0.58305933  1
  P  P25  1  0.66674167  0.62405133  0.58305933  1
  P  P26  1  0.37594867  0.04269033  0.58305933  1
  P  P27  1  0.62365900  0.95747800  0.41629800  1
  P  P28  1  0.33381900  0.37634100  0.41629800  1
  P  P29  1  0.04252200  0.66618100  0.41629800  1
  P  P30  1  0.62397633  0.66659167  0.91639267  1
  P  P31  1  0.33340833  0.95738467  0.91639267  1
  P  P32  1  0.04261533  0.37602367  0.91639267  1
  P  P33  1  0.29032567  0.29081133  0.74963133  1
  P  P34  1  0.00048567  0.70967433  0.74963133  1
  P  P35  1  0.70918867  0.99951433  0.74963133  1
  O  O36  1  0.32737300  0.85428600  0.97763300  1
  O  O37  1  0.14571400  0.47308700  0.97763300  1
  O  O38  1  0.52691300  0.67262700  0.97763300  1
  O  O39  1  0.48179533  0.17069767  0.25362167  1
  O  O40  1  0.19162567  0.99277333  0.18927433  1
  O  O41  1  0.31339300  0.83063000  0.24826000  1
  O  O42  1  0.82930233  0.31109767  0.25362167  1
  O  O43  1  0.16937000  0.48276300  0.24826000  1
  O  O44  1  0.86002000  0.52140700  0.14418100  1
  O  O45  1  0.51723700  0.68660700  0.24826000  1
  O  O46  1  0.97561567  0.81106033  0.07783233  1
  O  O47  1  0.66138700  0.13998000  0.14418100  1
  O  O48  1  0.00722667  0.19885233  0.18927433  1
  O  O49  1  0.68890233  0.51820467  0.25362167  1
  O  O50  1  0.14684567  0.64195133  0.08647933  1
  O  O51  1  0.80114767  0.80837433  0.18927433  1
  O  O52  1  0.49510567  0.85315433  0.08647933  1
  O  O53  1  0.83544467  0.02438433  0.07783233  1
  O  O54  1  0.35804867  0.50489433  0.08647933  1
  O  O55  1  0.47859300  0.33861300  0.14418100  1
  O  O56  1  0.18893967  0.16455533  0.07783233  1
  O  O57  1  0.14406633  0.66589967  0.35583467  1
  O  O58  1  0.52183333  0.85593367  0.35583467  1
  O  O59  1  0.33410033  0.47816667  0.35583467  1
  O  O60  1  0.99403967  0.18761933  0.31096633  1
  O  O61  1  0.81238067  0.80642033  0.31096633  1
  O  O62  1  0.19357967  0.00596033  0.31096633  1
  O  O63  1  0.14846200  0.50403100  0.58695500  1
  O  O64  1  0.85829233  0.32610667  0.52260767  1
  O  O65  1  0.98005967  0.16396333  0.58159333  1
  O  O66  1  0.49596900  0.64443100  0.58695500  1
  O  O67  1  0.83603667  0.81609633  0.58159333  1
  O  O68  1  0.52668667  0.85474033  0.47751433  1
  O  O69  1  0.18390367  0.01994033  0.58159333  1
  O  O70  1  0.64228233  0.14439367  0.41116567  1
  O  O71  1  0.32805367  0.47331333  0.47751433  1
  O  O72  1  0.67389333  0.53218567  0.52260767  1
  O  O73  1  0.35556900  0.85153800  0.58695500  1
  O  O74  1  0.81351233  0.97528467  0.41981267  1
  O  O75  1  0.46781433  0.14170767  0.52260767  1
  O  O76  1  0.16177233  0.18648767  0.41981267  1
  O  O77  1  0.50211133  0.35771767  0.41116567  1
  O  O78  1  0.02471533  0.83822767  0.41981267  1
  O  O79  1  0.14525967  0.67194633  0.47751433  1
  O  O80  1  0.85560633  0.49788867  0.41116567  1
  O  O81  1  0.81073300  0.99923300  0.68916800  1
  O  O82  1  0.18850000  0.18926700  0.68916800  1
  O  O83  1  0.00076700  0.81150000  0.68916800  1
  O  O84  1  0.66070633  0.52095267  0.64429967  1
  O  O85  1  0.47904733  0.13975367  0.64429967  1
  O  O86  1  0.86024633  0.33929367  0.64429967  1
  O  O87  1  0.81512867  0.83736433  0.92028833  1
  O  O88  1  0.52495900  0.65944000  0.85594100  1
  O  O89  1  0.64672633  0.49729667  0.91492667  1
  O  O90  1  0.16263567  0.97776433  0.92028833  1
  O  O91  1  0.50270333  0.14942967  0.91492667  1
  O  O92  1  0.19335333  0.18807367  0.81084767  1
  O  O93  1  0.85057033  0.35327367  0.91492667  1
  O  O94  1  0.30894900  0.47772700  0.74449900  1
  O  O95  1  0.99472033  0.80664667  0.81084767  1
  O  O96  1  0.34056000  0.86551900  0.85594100  1
  O  O97  1  0.02223567  0.18487133  0.92028833  1
  O  O98  1  0.48017900  0.30861800  0.75314600  1
  O  O99  1  0.13448100  0.47504100  0.85594100  1
  O  O100  1  0.82843900  0.51982100  0.75314600  1
  O  O101  1  0.16877800  0.69105100  0.74449900  1
  O  O102  1  0.69138200  0.17156100  0.75314600  1
  O  O103  1  0.81192633  0.00527967  0.81084767  1
  O  O104  1  0.52227300  0.83122200  0.74449900  1
  O  O105  1  0.47739967  0.33256633  0.02250133  1
  O  O106  1  0.85516667  0.52260033  0.02250133  1
  O  O107  1  0.66743367  0.14483333  0.02250133  1
