# generated using pymatgen
data_CeU5O12
_symmetry_space_group_name_H-M   'P 1'
_cell_length_a   6.65544200
_cell_length_b   11.52702000
_cell_length_c   6.65455686
_cell_angle_alpha   90.00000000
_cell_angle_beta   109.47133369
_cell_angle_gamma   90.00000000
_symmetry_Int_Tables_number   1
_chemical_formula_structural   CeU5O12
_chemical_formula_sum   'Ce2 U10 O24'
_cell_volume   481.32290134
_cell_formula_units_Z   2
loop_
 _symmetry_equiv_pos_site_id
 _symmetry_equiv_pos_as_xyz
  1  'x, y, z'
loop_
 _atom_site_type_symbol
 _atom_site_label
 _atom_site_symmetry_multiplicity
 _atom_site_fract_x
 _atom_site_fract_y
 _atom_site_fract_z
 _atom_site_occupancy
  Ce  Ce0  1  0.50000000  0.00000000  0.50000000  1
  Ce  Ce1  1  0.00000000  0.50000000  0.50000000  1
  U  U2  1  0.50000000  0.66669900  0.50000000  1
  U  U3  1  0.50000000  0.33330100  0.50000000  1
  U  U4  1  0.50000000  0.83336500  0.00000000  1
  U  U5  1  0.00000000  0.00000000  0.00000000  1
  U  U6  1  0.50000000  0.16663500  0.00000000  1
  U  U7  1  0.00000000  0.16669900  0.50000000  1
  U  U8  1  0.00000000  0.83330100  0.50000000  1
  U  U9  1  0.00000000  0.33336500  0.00000000  1
  U  U10  1  0.50000000  0.50000000  0.00000000  1
  U  U11  1  0.00000000  0.66663500  0.00000000  1
  O  O12  1  0.88434200  0.00000000  0.62927400  1
  O  O13  1  0.62504300  0.66720500  0.87667100  1
  O  O14  1  0.37495700  0.66720500  0.12332900  1
  O  O15  1  0.62923900  0.00000000  0.88422800  1
  O  O16  1  0.62504300  0.33279500  0.87667100  1
  O  O17  1  0.62760300  0.82958500  0.37076300  1
  O  O18  1  0.11565800  0.00000000  0.37072600  1
  O  O19  1  0.37239700  0.17041500  0.62923700  1
  O  O20  1  0.37076100  0.00000000  0.11577200  1
  O  O21  1  0.37495700  0.33279500  0.12332900  1
  O  O22  1  0.37239700  0.82958500  0.62923700  1
  O  O23  1  0.62760300  0.17041500  0.37076300  1
  O  O24  1  0.38434200  0.50000000  0.62927400  1
  O  O25  1  0.12504300  0.16720500  0.87667100  1
  O  O26  1  0.87495700  0.16720500  0.12332900  1
  O  O27  1  0.12923900  0.50000000  0.88422800  1
  O  O28  1  0.12504300  0.83279500  0.87667100  1
  O  O29  1  0.12760300  0.32958500  0.37076300  1
  O  O30  1  0.61565800  0.50000000  0.37072600  1
  O  O31  1  0.87239700  0.67041500  0.62923700  1
  O  O32  1  0.87076100  0.50000000  0.11577200  1
  O  O33  1  0.87495700  0.83279500  0.12332900  1
  O  O34  1  0.87239700  0.32958500  0.62923700  1
  O  O35  1  0.12760300  0.67041500  0.37076300  1
