# generated using pymatgen
data_Li5Mn6(BO3)6
_symmetry_space_group_name_H-M   'P 1'
_cell_length_a   15.85199000
_cell_length_b   9.13762200
_cell_length_c   11.85011344
_cell_angle_alpha   90.00000000
_cell_angle_beta   118.39429016
_cell_angle_gamma   90.00000000
_symmetry_Int_Tables_number   1
_chemical_formula_structural   Li5Mn6(BO3)6
_chemical_formula_sum   'Li20 Mn24 B24 O72'
_cell_volume   1509.98310072
_cell_formula_units_Z   4
loop_
 _symmetry_equiv_pos_site_id
 _symmetry_equiv_pos_as_xyz
  1  'x, y, z'
loop_
 _atom_site_type_symbol
 _atom_site_label
 _atom_site_symmetry_multiplicity
 _atom_site_fract_x
 _atom_site_fract_y
 _atom_site_fract_z
 _atom_site_occupancy
  Li  Li0  1  0.35998800  0.73595700  0.66581800  1
  Li  Li1  1  0.83558400  0.25154300  0.91335500  1
  Li  Li2  1  0.52757300  0.23911800  0.67041300  1
  Li  Li3  1  0.33558400  0.24845700  0.41335500  1
  Li  Li4  1  0.50334500  0.25663000  0.91458900  1
  Li  Li5  1  0.69161200  0.72927800  0.66448200  1
  Li  Li6  1  0.52757300  0.76088200  0.17041300  1
  Li  Li7  1  0.50334500  0.74337000  0.41458900  1
  Li  Li8  1  0.19161200  0.77072200  0.16448200  1
  Li  Li9  1  0.35998800  0.26404300  0.16581800  1
  Li  Li10  1  0.85998800  0.23595700  0.66581800  1
  Li  Li11  1  0.33558400  0.75154300  0.91335500  1
  Li  Li12  1  0.02757300  0.73911800  0.67041300  1
  Li  Li13  1  0.83558400  0.74845700  0.41335500  1
  Li  Li14  1  0.00334500  0.75663000  0.91458900  1
  Li  Li15  1  0.19161200  0.22927800  0.66448200  1
  Li  Li16  1  0.02757300  0.26088200  0.17041300  1
  Li  Li17  1  0.00334500  0.24337000  0.41458900  1
  Li  Li18  1  0.69161200  0.27072200  0.16448200  1
  Li  Li19  1  0.85998800  0.76404300  0.16581800  1
  Mn  Mn20  1  0.66045950  0.43431950  0.88151300  1
  Mn  Mn21  1  0.51869900  0.91397500  0.63466400  1
  Mn  Mn22  1  0.49890950  0.90590450  0.88618100  1
  Mn  Mn23  1  0.18043100  0.09850300  0.12775200  1
  Mn  Mn24  1  0.68043100  0.40149700  0.62775200  1
  Mn  Mn25  1  0.66045950  0.56568050  0.38151300  1
  Mn  Mn26  1  0.34470750  0.40731650  0.63360800  1
  Mn  Mn27  1  0.31370900  0.59000900  0.38376400  1
  Mn  Mn28  1  0.81370900  0.90999100  0.88376400  1
  Mn  Mn29  1  0.51869900  0.08602500  0.13466400  1
  Mn  Mn30  1  0.49890950  0.09409550  0.38618100  1
  Mn  Mn31  1  0.34470750  0.59268350  0.13360800  1
  Mn  Mn32  1  0.16045950  0.93431950  0.88151300  1
  Mn  Mn33  1  0.01869900  0.41397500  0.63466400  1
  Mn  Mn34  1  0.99890950  0.40590450  0.88618100  1
  Mn  Mn35  1  0.68043100  0.59850300  0.12775200  1
  Mn  Mn36  1  0.18043100  0.90149700  0.62775200  1
  Mn  Mn37  1  0.16045950  0.06568050  0.38151300  1
  Mn  Mn38  1  0.84470750  0.90731650  0.63360800  1
  Mn  Mn39  1  0.81370900  0.09000900  0.38376400  1
  Mn  Mn40  1  0.31370900  0.40999100  0.88376400  1
  Mn  Mn41  1  0.01869900  0.58602500  0.13466400  1
  Mn  Mn42  1  0.99890950  0.59409550  0.38618100  1
  Mn  Mn43  1  0.84470750  0.09268350  0.13360800  1
  B  B44  1  0.51386950  0.58034250  0.62676500  1
  B  B45  1  0.48205700  0.57260800  0.87721300  1
  B  B46  1  0.32489450  0.92603850  0.37262100  1
  B  B47  1  0.65373000  0.09032300  0.87656000  1
  B  B48  1  0.35007250  0.07390250  0.62590800  1
  B  B49  1  0.82489450  0.57396150  0.87262100  1
  B  B50  1  0.18408900  0.42348300  0.13247200  1
  B  B51  1  0.65373000  0.90967700  0.37656000  1
  B  B52  1  0.35007250  0.92609750  0.12590800  1
  B  B53  1  0.68408900  0.07651700  0.63247200  1
  B  B54  1  0.51386950  0.41965750  0.12676500  1
  B  B55  1  0.48205700  0.42739200  0.37721300  1
  B  B56  1  0.01386950  0.08034250  0.62676500  1
  B  B57  1  0.98205700  0.07260800  0.87721300  1
  B  B58  1  0.82489450  0.42603850  0.37262100  1
  B  B59  1  0.15373000  0.59032300  0.87656000  1
  B  B60  1  0.85007250  0.57390250  0.62590800  1
  B  B61  1  0.32489450  0.07396150  0.87262100  1
  B  B62  1  0.68408900  0.92348300  0.13247200  1
  B  B63  1  0.15373000  0.40967700  0.37656000  1
  B  B64  1  0.85007250  0.42609750  0.12590800  1
  B  B65  1  0.18408900  0.57651700  0.63247200  1
  B  B66  1  0.01386950  0.91965750  0.12676500  1
  B  B67  1  0.98205700  0.92739200  0.37721300  1
  O  O68  1  0.56721300  0.45089600  0.67668100  1
  O  O69  1  0.58122900  0.57031300  0.92900500  1
  O  O70  1  0.41636400  0.58229400  0.59435700  1
  O  O71  1  0.43436850  0.70294050  0.86299700  1
  O  O72  1  0.60545700  0.95773100  0.83778800  1
  O  O73  1  0.42464400  0.92461700  0.42292100  1
  O  O74  1  0.27363450  0.80129950  0.35208800  1
  O  O75  1  0.25108800  0.92251100  0.08734500  1
  O  O76  1  0.40009600  0.94237500  0.66992100  1
  O  O77  1  0.27489550  0.06108750  0.33963100  1
  O  O78  1  0.60433650  0.21916850  0.86299000  1
  O  O79  1  0.77489550  0.43891250  0.83963100  1
  O  O80  1  0.92464400  0.57538300  0.92292100  1
  O  O81  1  0.39429200  0.19941600  0.61524000  1
  O  O82  1  0.75108800  0.57748900  0.58734500  1
  O  O83  1  0.56721300  0.54910400  0.17668100  1
  O  O84  1  0.23501500  0.30257000  0.13609700  1
  O  O85  1  0.43158150  0.56088050  0.33971600  1
  O  O86  1  0.77363450  0.69870050  0.85208800  1
  O  O87  1  0.43158150  0.43911950  0.83971600  1
  O  O88  1  0.25208950  0.40893350  0.42313100  1
  O  O89  1  0.60433650  0.78083150  0.36299000  1
  O  O90  1  0.08563350  0.41040950  0.09432600  1
  O  O91  1  0.55608200  0.70209200  0.60747400  1
  O  O92  1  0.22676800  0.56182800  0.16727500  1
  O  O93  1  0.39429200  0.80058400  0.11524000  1
  O  O94  1  0.72676800  0.93817200  0.66727500  1
  O  O95  1  0.60545700  0.04226900  0.33778800  1
  O  O96  1  0.75208950  0.09106650  0.92313100  1
  O  O97  1  0.73501500  0.19743000  0.63609700  1
  O  O98  1  0.58563350  0.08959050  0.59432600  1
  O  O99  1  0.40009600  0.05762500  0.16992100  1
  O  O100  1  0.05608200  0.79790800  0.10747400  1
  O  O101  1  0.58122900  0.42968700  0.42900500  1
  O  O102  1  0.43436850  0.29705950  0.36299700  1
  O  O103  1  0.41636400  0.41770600  0.09435700  1
  O  O104  1  0.06721300  0.95089600  0.67668100  1
  O  O105  1  0.08122900  0.07031300  0.92900500  1
  O  O106  1  0.91636400  0.08229400  0.59435700  1
  O  O107  1  0.93436850  0.20294050  0.86299700  1
  O  O108  1  0.10545700  0.45773100  0.83778800  1
  O  O109  1  0.92464400  0.42461700  0.42292100  1
  O  O110  1  0.77363450  0.30129950  0.35208800  1
  O  O111  1  0.75108800  0.42251100  0.08734500  1
  O  O112  1  0.90009600  0.44237500  0.66992100  1
  O  O113  1  0.77489550  0.56108750  0.33963100  1
  O  O114  1  0.10433650  0.71916850  0.86299000  1
  O  O115  1  0.27489550  0.93891250  0.83963100  1
  O  O116  1  0.42464400  0.07538300  0.92292100  1
  O  O117  1  0.89429200  0.69941600  0.61524000  1
  O  O118  1  0.25108800  0.07748900  0.58734500  1
  O  O119  1  0.06721300  0.04910400  0.17668100  1
  O  O120  1  0.73501500  0.80257000  0.13609700  1
  O  O121  1  0.93158150  0.06088050  0.33971600  1
  O  O122  1  0.27363450  0.19870050  0.85208800  1
  O  O123  1  0.93158150  0.93911950  0.83971600  1
  O  O124  1  0.75208950  0.90893350  0.42313100  1
  O  O125  1  0.10433650  0.28083150  0.36299000  1
  O  O126  1  0.58563350  0.91040950  0.09432600  1
  O  O127  1  0.05608200  0.20209200  0.60747400  1
  O  O128  1  0.72676800  0.06182800  0.16727500  1
  O  O129  1  0.89429200  0.30058400  0.11524000  1
  O  O130  1  0.22676800  0.43817200  0.66727500  1
  O  O131  1  0.10545700  0.54226900  0.33778800  1
  O  O132  1  0.25208950  0.59106650  0.92313100  1
  O  O133  1  0.23501500  0.69743000  0.63609700  1
  O  O134  1  0.08563350  0.58959050  0.59432600  1
  O  O135  1  0.90009600  0.55762500  0.16992100  1
  O  O136  1  0.55608200  0.29790800  0.10747400  1
  O  O137  1  0.08122900  0.92968700  0.42900500  1
  O  O138  1  0.93436850  0.79705950  0.36299700  1
  O  O139  1  0.91636400  0.91770600  0.09435700  1
