# generated using pymatgen
data_MnV4CrO12
_symmetry_space_group_name_H-M   'P 1'
_cell_length_a   10.11336800
_cell_length_b   9.18760800
_cell_length_c   5.90292054
_cell_angle_alpha   90.00000000
_cell_angle_beta   110.64156306
_cell_angle_gamma   90.00000000
_symmetry_Int_Tables_number   1
_chemical_formula_structural   MnV4CrO12
_chemical_formula_sum   'Mn2 V8 Cr2 O24'
_cell_volume   513.27502084
_cell_formula_units_Z   2
loop_
 _symmetry_equiv_pos_site_id
 _symmetry_equiv_pos_as_xyz
  1  'x, y, z'
loop_
 _atom_site_type_symbol
 _atom_site_label
 _atom_site_symmetry_multiplicity
 _atom_site_fract_x
 _atom_site_fract_y
 _atom_site_fract_z
 _atom_site_occupancy
  Mn  Mn0  1  0.00000000  0.91519800  0.50000000  1
  Mn  Mn1  1  0.50000000  0.41519800  0.50000000  1
  V  V2  1  0.19950450  0.40757750  0.98448700  1
  V  V3  1  0.20189350  0.59159150  0.49021300  1
  V  V4  1  0.80049550  0.40757750  0.01551300  1
  V  V5  1  0.79810650  0.59159150  0.50978700  1
  V  V6  1  0.69950450  0.90757750  0.98448700  1
  V  V7  1  0.70189350  0.09159150  0.49021300  1
  V  V8  1  0.30049550  0.90757750  0.01551300  1
  V  V9  1  0.29810650  0.09159150  0.50978700  1
  Cr  Cr10  1  0.00000000  0.08349400  0.00000000  1
  Cr  Cr11  1  0.50000000  0.58349400  0.00000000  1
  O  O12  1  0.38291900  0.42211200  0.09194700  1
  O  O13  1  0.14039300  0.23332300  0.96084100  1
  O  O14  1  0.38560050  0.58043250  0.62316400  1
  O  O15  1  0.14236750  0.50354150  0.19598400  1
  O  O16  1  0.85960700  0.23332300  0.03915900  1
  O  O17  1  0.13613400  0.49544300  0.69721100  1
  O  O18  1  0.85763250  0.50354150  0.80401600  1
  O  O19  1  0.14963600  0.76663300  0.46540600  1
  O  O20  1  0.86386600  0.49544300  0.30278900  1
  O  O21  1  0.61708100  0.42211200  0.90805300  1
  O  O22  1  0.85036400  0.76663300  0.53459400  1
  O  O23  1  0.61439950  0.58043250  0.37683600  1
  O  O24  1  0.88291900  0.92211200  0.09194700  1
  O  O25  1  0.64039300  0.73332300  0.96084100  1
  O  O26  1  0.88560050  0.08043250  0.62316400  1
  O  O27  1  0.64236750  0.00354150  0.19598400  1
  O  O28  1  0.35960700  0.73332300  0.03915900  1
  O  O29  1  0.63613400  0.99544300  0.69721100  1
  O  O30  1  0.35763250  0.00354150  0.80401600  1
  O  O31  1  0.64963600  0.26663300  0.46540600  1
  O  O32  1  0.36386600  0.99544300  0.30278900  1
  O  O33  1  0.11708100  0.92211200  0.90805300  1
  O  O34  1  0.35036400  0.26663300  0.53459400  1
  O  O35  1  0.11439950  0.08043250  0.37683600  1
