# generated using pymatgen
data_Na(NiO2)2
_symmetry_space_group_name_H-M   'P 1'
_cell_length_a   5.77113800
_cell_length_b   4.87145300
_cell_length_c   12.61878487
_cell_angle_alpha   90.00000000
_cell_angle_beta   116.82515921
_cell_angle_gamma   90.00000000
_symmetry_Int_Tables_number   1
_chemical_formula_structural   Na(NiO2)2
_chemical_formula_sum   'Na4 Ni8 O16'
_cell_volume   316.58556655
_cell_formula_units_Z   4
loop_
 _symmetry_equiv_pos_site_id
 _symmetry_equiv_pos_as_xyz
  1  'x, y, z'
loop_
 _atom_site_type_symbol
 _atom_site_label
 _atom_site_symmetry_multiplicity
 _atom_site_fract_x
 _atom_site_fract_y
 _atom_site_fract_z
 _atom_site_occupancy
  Na  Na0  1  0.50000000  0.48577200  0.25000000  1
  Na  Na1  1  0.00000000  0.14236700  0.75000000  1
  Na  Na2  1  0.00000000  0.85763300  0.25000000  1
  Na  Na3  1  0.50000000  0.51422800  0.75000000  1
  Ni  Ni4  1  0.24924900  0.49931900  0.49642200  1
  Ni  Ni5  1  0.75075100  0.50068100  0.50357800  1
  Ni  Ni6  1  0.75075100  0.49931900  0.00357800  1
  Ni  Ni7  1  0.24924900  0.50068100  0.99642200  1
  Ni  Ni8  1  0.00000000  0.00000000  0.50000000  1
  Ni  Ni9  1  0.50000000  0.00000000  0.50000000  1
  Ni  Ni10  1  0.00000000  0.00000000  0.00000000  1
  Ni  Ni11  1  0.50000000  0.00000000  0.00000000  1
  O  O12  1  0.89830500  0.33018000  0.91099700  1
  O  O13  1  0.59024300  0.32260700  0.59290500  1
  O  O14  1  0.40975700  0.32260700  0.90709500  1
  O  O15  1  0.10169500  0.33018000  0.58900300  1
  O  O16  1  0.17221800  0.16706600  0.41194400  1
  O  O17  1  0.82778200  0.16706600  0.08805600  1
  O  O18  1  0.65057500  0.17898800  0.41375000  1
  O  O19  1  0.34942500  0.17898800  0.08625000  1
  O  O20  1  0.65057500  0.82101200  0.91375000  1
  O  O21  1  0.34942500  0.82101200  0.58625000  1
  O  O22  1  0.17221800  0.83293400  0.91194400  1
  O  O23  1  0.82778200  0.83293400  0.58805600  1
  O  O24  1  0.10169500  0.66982000  0.08900300  1
  O  O25  1  0.59024300  0.67739300  0.09290500  1
  O  O26  1  0.40975700  0.67739300  0.40709500  1
  O  O27  1  0.89830500  0.66982000  0.41099700  1
