# generated using pymatgen
data_CrOF
_symmetry_space_group_name_H-M   'P 1'
_cell_length_a   5.12339570
_cell_length_b   4.60051900
_cell_length_c   5.62605387
_cell_angle_alpha   90.00000000
_cell_angle_beta   91.46634025
_cell_angle_gamma   90.00000000
_symmetry_Int_Tables_number   1
_chemical_formula_structural   CrOF
_chemical_formula_sum   'Cr4 O4 F4'
_cell_volume   132.56423577
_cell_formula_units_Z   4
loop_
 _symmetry_equiv_pos_site_id
 _symmetry_equiv_pos_as_xyz
  1  'x, y, z'
loop_
 _atom_site_type_symbol
 _atom_site_label
 _atom_site_symmetry_multiplicity
 _atom_site_fract_x
 _atom_site_fract_y
 _atom_site_fract_z
 _atom_site_occupancy
  Cr  Cr0  1  0.22547850  0.51599900  0.35102700  1
  Cr  Cr1  1  0.77452150  0.01599900  0.14897300  1
  Cr  Cr2  1  0.22547850  0.98400100  0.85102700  1
  Cr  Cr3  1  0.77452150  0.48400100  0.64897300  1
  O  O4  1  0.08056350  0.72391700  0.61457900  1
  O  O5  1  0.08056350  0.77608300  0.11457900  1
  O  O6  1  0.91943650  0.22391700  0.88542100  1
  O  O7  1  0.91943650  0.27608300  0.38542100  1
  F  F8  1  0.42083950  0.25892100  0.61249800  1
  F  F9  1  0.42083950  0.24107900  0.11249800  1
  F  F10  1  0.57916050  0.75892100  0.88750200  1
  F  F11  1  0.57916050  0.74107900  0.38750200  1
