# generated using pymatgen
data_Li4Fe(PO3)6
_symmetry_space_group_name_H-M   'P 1'
_cell_length_a   12.50583200
_cell_length_b   7.78659600
_cell_length_c   13.95937303
_cell_angle_alpha   90.00000000
_cell_angle_beta   93.61958315
_cell_angle_gamma   90.00000000
_symmetry_Int_Tables_number   1
_chemical_formula_structural   Li4Fe(PO3)6
_chemical_formula_sum   'Li16 Fe4 P24 O72'
_cell_volume   1356.62230568
_cell_formula_units_Z   4
loop_
 _symmetry_equiv_pos_site_id
 _symmetry_equiv_pos_as_xyz
  1  'x, y, z'
loop_
 _atom_site_type_symbol
 _atom_site_label
 _atom_site_symmetry_multiplicity
 _atom_site_fract_x
 _atom_site_fract_y
 _atom_site_fract_z
 _atom_site_occupancy
  Li  Li0  1  0.16913900  0.87038700  0.92274000  1
  Li  Li1  1  0.16913900  0.12961300  0.42274000  1
  Li  Li2  1  0.32985300  0.88593700  0.54696600  1
  Li  Li3  1  0.32985300  0.11406300  0.04696600  1
  Li  Li4  1  0.67014700  0.88593700  0.95303400  1
  Li  Li5  1  0.67014700  0.11406300  0.45303400  1
  Li  Li6  1  0.83086100  0.87038700  0.57726000  1
  Li  Li7  1  0.83086100  0.12961300  0.07726000  1
  Li  Li8  1  0.66913900  0.37038700  0.92274000  1
  Li  Li9  1  0.66913900  0.62961300  0.42274000  1
  Li  Li10  1  0.82985300  0.38593700  0.54696600  1
  Li  Li11  1  0.82985300  0.61406300  0.04696600  1
  Li  Li12  1  0.17014700  0.38593700  0.95303400  1
  Li  Li13  1  0.17014700  0.61406300  0.45303400  1
  Li  Li14  1  0.33086100  0.37038700  0.57726000  1
  Li  Li15  1  0.33086100  0.62961300  0.07726000  1
  Fe  Fe16  1  0.50000000  0.12631400  0.75000000  1
  Fe  Fe17  1  0.50000000  0.87368600  0.25000000  1
  Fe  Fe18  1  0.00000000  0.62631400  0.75000000  1
  Fe  Fe19  1  0.00000000  0.37368600  0.25000000  1
  P  P20  1  0.09188500  0.94354900  0.61420800  1
  P  P21  1  0.09188500  0.05645100  0.11420800  1
  P  P22  1  0.23158500  0.13820700  0.75077300  1
  P  P23  1  0.23158500  0.86179300  0.25077300  1
  P  P24  1  0.41505150  0.81522350  0.88919900  1
  P  P25  1  0.41505150  0.18477650  0.38919900  1
  P  P26  1  0.58494850  0.81522350  0.61080100  1
  P  P27  1  0.58494850  0.18477650  0.11080100  1
  P  P28  1  0.76841500  0.13820700  0.74922700  1
  P  P29  1  0.76841500  0.86179300  0.24922700  1
  P  P30  1  0.90811500  0.94354900  0.88579200  1
  P  P31  1  0.90811500  0.05645100  0.38579200  1
  P  P32  1  0.59188500  0.44354900  0.61420800  1
  P  P33  1  0.59188500  0.55645100  0.11420800  1
  P  P34  1  0.73158500  0.63820700  0.75077300  1
  P  P35  1  0.73158500  0.36179300  0.25077300  1
  P  P36  1  0.91505150  0.31522350  0.88919900  1
  P  P37  1  0.91505150  0.68477650  0.38919900  1
  P  P38  1  0.08494850  0.31522350  0.61080100  1
  P  P39  1  0.08494850  0.68477650  0.11080100  1
  P  P40  1  0.26841500  0.63820700  0.74922700  1
  P  P41  1  0.26841500  0.36179300  0.24922700  1
  P  P42  1  0.40811500  0.44354900  0.88579200  1
  P  P43  1  0.40811500  0.55645100  0.38579200  1
  O  O44  1  0.16000550  0.97425750  0.71442100  1
  O  O45  1  0.16558100  0.91824700  0.53430800  1
  O  O46  1  0.16000550  0.02574250  0.21442100  1
  O  O47  1  0.16558100  0.08175300  0.03430800  1
  O  O48  1  0.23419400  0.13567700  0.85748400  1
  O  O49  1  0.23419400  0.86432300  0.35748400  1
  O  O50  1  0.34232250  0.84626450  0.96947500  1
  O  O51  1  0.33267600  0.14397700  0.69727500  1
  O  O52  1  0.34523550  0.79479250  0.78833100  1
  O  O53  1  0.34232250  0.15373550  0.46947500  1
  O  O54  1  0.33267600  0.85602300  0.19727500  1
  O  O55  1  0.34523550  0.20520750  0.28833100  1
  O  O56  1  0.46957450  0.62648150  0.90064900  1
  O  O57  1  0.49349450  0.31480650  0.86659300  1
  O  O58  1  0.50436900  0.93773700  0.87075600  1
  O  O59  1  0.46957450  0.37351850  0.40064900  1
  O  O60  1  0.49563100  0.93773700  0.62924400  1
  O  O61  1  0.49349450  0.68519350  0.36659300  1
  O  O62  1  0.50650550  0.31480650  0.63340700  1
  O  O63  1  0.50436900  0.06226300  0.37075600  1
  O  O64  1  0.53042550  0.62648150  0.59935100  1
  O  O65  1  0.49563100  0.06226300  0.12924400  1
  O  O66  1  0.50650550  0.68519350  0.13340700  1
  O  O67  1  0.53042550  0.37351850  0.09935100  1
  O  O68  1  0.65476450  0.79479250  0.71166900  1
  O  O69  1  0.66732400  0.14397700  0.80272500  1
  O  O70  1  0.65767750  0.84626450  0.53052500  1
  O  O71  1  0.65476450  0.20520750  0.21166900  1
  O  O72  1  0.66732400  0.85602300  0.30272500  1
  O  O73  1  0.65767750  0.15373550  0.03052500  1
  O  O74  1  0.76580600  0.13567700  0.64251600  1
  O  O75  1  0.76580600  0.86432300  0.14251600  1
  O  O76  1  0.83441900  0.91824700  0.96569200  1
  O  O77  1  0.83999450  0.97425750  0.78557900  1
  O  O78  1  0.83441900  0.08175300  0.46569200  1
  O  O79  1  0.83999450  0.02574250  0.28557900  1
  O  O80  1  0.66000550  0.47425750  0.71442100  1
  O  O81  1  0.66558100  0.41824700  0.53430800  1
  O  O82  1  0.66000550  0.52574250  0.21442100  1
  O  O83  1  0.66558100  0.58175300  0.03430800  1
  O  O84  1  0.73419400  0.63567700  0.85748400  1
  O  O85  1  0.73419400  0.36432300  0.35748400  1
  O  O86  1  0.84232250  0.34626450  0.96947500  1
  O  O87  1  0.83267600  0.64397700  0.69727500  1
  O  O88  1  0.84523550  0.29479250  0.78833100  1
  O  O89  1  0.84232250  0.65373550  0.46947500  1
  O  O90  1  0.83267600  0.35602300  0.19727500  1
  O  O91  1  0.84523550  0.70520750  0.28833100  1
  O  O92  1  0.96957450  0.12648150  0.90064900  1
  O  O93  1  0.99349450  0.81480650  0.86659300  1
  O  O94  1  0.00436900  0.43773700  0.87075600  1
  O  O95  1  0.96957450  0.87351850  0.40064900  1
  O  O96  1  0.99563100  0.43773700  0.62924400  1
  O  O97  1  0.99349450  0.18519350  0.36659300  1
  O  O98  1  0.00650550  0.81480650  0.63340700  1
  O  O99  1  0.00436900  0.56226300  0.37075600  1
  O  O100  1  0.03042550  0.12648150  0.59935100  1
  O  O101  1  0.99563100  0.56226300  0.12924400  1
  O  O102  1  0.00650550  0.18519350  0.13340700  1
  O  O103  1  0.03042550  0.87351850  0.09935100  1
  O  O104  1  0.15476450  0.29479250  0.71166900  1
  O  O105  1  0.16732400  0.64397700  0.80272500  1
  O  O106  1  0.15767750  0.34626450  0.53052500  1
  O  O107  1  0.15476450  0.70520750  0.21166900  1
  O  O108  1  0.16732400  0.35602300  0.30272500  1
  O  O109  1  0.15767750  0.65373550  0.03052500  1
  O  O110  1  0.26580600  0.63567700  0.64251600  1
  O  O111  1  0.26580600  0.36432300  0.14251600  1
  O  O112  1  0.33441900  0.41824700  0.96569200  1
  O  O113  1  0.33999450  0.47425750  0.78557900  1
  O  O114  1  0.33441900  0.58175300  0.46569200  1
  O  O115  1  0.33999450  0.52574250  0.28557900  1
