# generated using pymatgen
data_LiMn2OF5
_symmetry_space_group_name_H-M   'P 1'
_cell_length_a   6.57958400
_cell_length_b   6.56206000
_cell_length_c   18.92967835
_cell_angle_alpha   90.00000000
_cell_angle_beta   92.39209426
_cell_angle_gamma   90.00000000
_symmetry_Int_Tables_number   1
_chemical_formula_structural   LiMn2OF5
_chemical_formula_sum   'Li8 Mn16 O8 F40'
_cell_volume   816.58849644
_cell_formula_units_Z   8
loop_
 _symmetry_equiv_pos_site_id
 _symmetry_equiv_pos_as_xyz
  1  'x, y, z'
loop_
 _atom_site_type_symbol
 _atom_site_label
 _atom_site_symmetry_multiplicity
 _atom_site_fract_x
 _atom_site_fract_y
 _atom_site_fract_z
 _atom_site_occupancy
  Li  Li0  1  0.50079000  0.50727100  0.00271200  1
  Li  Li1  1  0.50079000  0.49272900  0.50271200  1
  Li  Li2  1  0.49282150  0.99496750  0.75253300  1
  Li  Li3  1  0.49282150  0.00503250  0.25253300  1
  Li  Li4  1  0.00079000  0.00727100  0.00271200  1
  Li  Li5  1  0.00079000  0.99272900  0.50271200  1
  Li  Li6  1  0.99282150  0.49496750  0.75253300  1
  Li  Li7  1  0.99282150  0.50503250  0.25253300  1
  Mn  Mn8  1  0.49590350  0.47914550  0.83514200  1
  Mn  Mn9  1  0.98334350  0.99667850  0.66415400  1
  Mn  Mn10  1  0.49590350  0.52085450  0.33514200  1
  Mn  Mn11  1  0.98334350  0.00332150  0.16415400  1
  Mn  Mn12  1  0.50192800  0.01817100  0.91388400  1
  Mn  Mn13  1  0.51795650  0.99544150  0.58443600  1
  Mn  Mn14  1  0.51795650  0.00455850  0.08443600  1
  Mn  Mn15  1  0.50192800  0.98182900  0.41388400  1
  Mn  Mn16  1  0.99590350  0.97914550  0.83514200  1
  Mn  Mn17  1  0.48334350  0.49667850  0.66415400  1
  Mn  Mn18  1  0.99590350  0.02085450  0.33514200  1
  Mn  Mn19  1  0.48334350  0.50332150  0.16415400  1
  Mn  Mn20  1  0.00192800  0.51817100  0.91388400  1
  Mn  Mn21  1  0.01795650  0.49544150  0.58443600  1
  Mn  Mn22  1  0.01795650  0.50455850  0.08443600  1
  Mn  Mn23  1  0.00192800  0.48182900  0.41388400  1
  O  O24  1  0.79963500  0.99693200  0.58778100  1
  O  O25  1  0.79963500  0.00306800  0.08778100  1
  O  O26  1  0.49395100  0.80353200  0.33810500  1
  O  O27  1  0.49395100  0.19646800  0.83810500  1
  O  O28  1  0.29963500  0.49693200  0.58778100  1
  O  O29  1  0.29963500  0.50306800  0.08778100  1
  O  O30  1  0.99395100  0.30353200  0.33810500  1
  O  O31  1  0.99395100  0.69646800  0.83810500  1
  F  F32  1  0.79787750  0.00230150  0.91778600  1
  F  F33  1  0.79787750  0.99769850  0.41778600  1
  F  F34  1  0.79814100  0.98683200  0.75282600  1
  F  F35  1  0.79814100  0.01316800  0.25282600  1
  F  F36  1  0.50548050  0.81927450  0.99174200  1
  F  F37  1  0.50653150  0.79555150  0.50315400  1
  F  F38  1  0.49554750  0.77697650  0.83422200  1
  F  F39  1  0.50297250  0.80267350  0.16402700  1
  F  F40  1  0.50007900  0.79282600  0.66736100  1
  F  F41  1  0.50007900  0.20717400  0.16736100  1
  F  F42  1  0.50297250  0.19732650  0.66402700  1
  F  F43  1  0.49554750  0.22302350  0.33422200  1
  F  F44  1  0.50653150  0.20444850  0.00315400  1
  F  F45  1  0.50548050  0.18072550  0.49174200  1
  F  F46  1  0.18447950  0.99236550  0.74281200  1
  F  F47  1  0.18447950  0.00763450  0.24281200  1
  F  F48  1  0.22109850  0.99520550  0.58320700  1
  F  F49  1  0.22109850  0.00479450  0.08320700  1
  F  F50  1  0.20146600  0.00165600  0.41411700  1
  F  F51  1  0.20146600  0.99834400  0.91411700  1
  F  F52  1  0.29787750  0.50230150  0.91778600  1
  F  F53  1  0.29787750  0.49769850  0.41778600  1
  F  F54  1  0.29814100  0.48683200  0.75282600  1
  F  F55  1  0.29814100  0.51316800  0.25282600  1
  F  F56  1  0.00548050  0.31927450  0.99174200  1
  F  F57  1  0.00653150  0.29555150  0.50315400  1
  F  F58  1  0.99554750  0.27697650  0.83422200  1
  F  F59  1  0.00297250  0.30267350  0.16402700  1
  F  F60  1  0.00007900  0.29282600  0.66736100  1
  F  F61  1  0.00007900  0.70717400  0.16736100  1
  F  F62  1  0.00297250  0.69732650  0.66402700  1
  F  F63  1  0.99554750  0.72302350  0.33422200  1
  F  F64  1  0.00653150  0.70444850  0.00315400  1
  F  F65  1  0.00548050  0.68072550  0.49174200  1
  F  F66  1  0.68447950  0.49236550  0.74281200  1
  F  F67  1  0.68447950  0.50763450  0.24281200  1
  F  F68  1  0.72109850  0.49520550  0.58320700  1
  F  F69  1  0.72109850  0.50479450  0.08320700  1
  F  F70  1  0.70146600  0.50165600  0.41411700  1
  F  F71  1  0.70146600  0.49834400  0.91411700  1
