# generated using pymatgen
data_Cr(PO3)5
_symmetry_space_group_name_H-M   'P 1'
_cell_length_a   5.21512400
_cell_length_b   9.72838700
_cell_length_c   13.11563781
_cell_angle_alpha   90.00000000
_cell_angle_beta   109.90417722
_cell_angle_gamma   90.00000000
_symmetry_Int_Tables_number   1
_chemical_formula_structural   Cr(PO3)5
_chemical_formula_sum   'Cr2 P10 O30'
_cell_volume   625.66863190
_cell_formula_units_Z   2
loop_
 _symmetry_equiv_pos_site_id
 _symmetry_equiv_pos_as_xyz
  1  'x, y, z'
loop_
 _atom_site_type_symbol
 _atom_site_label
 _atom_site_symmetry_multiplicity
 _atom_site_fract_x
 _atom_site_fract_y
 _atom_site_fract_z
 _atom_site_occupancy
  Cr  Cr0  1  0.99053400  0.00274400  0.99580900  1
  Cr  Cr1  1  0.99053400  0.99725600  0.49580900  1
  P  P2  1  0.52760700  0.47010400  0.14267300  1
  P  P3  1  0.56975400  0.17708800  0.08044400  1
  P  P4  1  0.47794900  0.46770900  0.36029600  1
  P  P5  1  0.98939600  0.01676400  0.24613200  1
  P  P6  1  0.98939600  0.98323600  0.74613200  1
  P  P7  1  0.41243800  0.82613700  0.91358500  1
  P  P8  1  0.56975400  0.82291200  0.58044400  1
  P  P9  1  0.41243800  0.17386300  0.41358500  1
  P  P10  1  0.47794900  0.53229100  0.86029600  1
  P  P11  1  0.52760700  0.52989600  0.64267300  1
  O  O12  1  0.26921100  0.84494800  0.55489400  1
  O  O13  1  0.75264100  0.51370800  0.43605100  1
  O  O14  1  0.95422300  0.06075000  0.83985400  1
  O  O15  1  0.25424300  0.52086400  0.06909000  1
  O  O16  1  0.24261500  0.12276600  0.29263900  1
  O  O17  1  0.35832800  0.33649800  0.40106200  1
  O  O18  1  0.72147000  0.41055700  0.66087300  1
  O  O19  1  0.63729900  0.33831200  0.09860500  1
  O  O20  1  0.69878400  0.13142200  0.99962200  1
  O  O21  1  0.28503900  0.12618000  0.49442400  1
  O  O22  1  0.63729900  0.66168800  0.59860500  1
  O  O23  1  0.02973800  0.05741200  0.65202800  1
  O  O24  1  0.50380000  0.59576200  0.75129800  1
  O  O25  1  0.72147000  0.58944300  0.16087300  1
  O  O26  1  0.69878400  0.86857800  0.49962200  1
  O  O27  1  0.26921100  0.15505200  0.05489400  1
  O  O28  1  0.71062600  0.14758000  0.43626600  1
  O  O29  1  0.35832800  0.66350200  0.90106200  1
  O  O30  1  0.28970300  0.41075600  0.84336200  1
  O  O31  1  0.71062600  0.85242000  0.93626600  1
  O  O32  1  0.28503900  0.87382000  0.99442400  1
  O  O33  1  0.02973800  0.94258800  0.15202800  1
  O  O34  1  0.28970300  0.58924400  0.34336200  1
  O  O35  1  0.75264100  0.48629200  0.93605100  1
  O  O36  1  0.24261500  0.87723400  0.79263900  1
  O  O37  1  0.95422300  0.93925000  0.33985400  1
  O  O38  1  0.25424300  0.47913600  0.56909000  1
  O  O39  1  0.50380000  0.40423800  0.25129800  1
  O  O40  1  0.72917700  0.88167300  0.70023600  1
  O  O41  1  0.72917700  0.11832700  0.20023600  1
