# generated using pymatgen
data_Li2CrSiO4
_symmetry_space_group_name_H-M   'P 1'
_cell_length_a   5.10208276
_cell_length_b   5.10208276
_cell_length_c   11.71180200
_cell_angle_alpha   90.00000000
_cell_angle_beta   90.00000000
_cell_angle_gamma   120.00000000
_symmetry_Int_Tables_number   1
_chemical_formula_structural   Li2CrSiO4
_chemical_formula_sum   'Li6 Cr3 Si3 O12'
_cell_volume   264.02761444
_cell_formula_units_Z   3
loop_
 _symmetry_equiv_pos_site_id
 _symmetry_equiv_pos_as_xyz
  1  'x, y, z'
loop_
 _atom_site_type_symbol
 _atom_site_label
 _atom_site_symmetry_multiplicity
 _atom_site_fract_x
 _atom_site_fract_y
 _atom_site_fract_z
 _atom_site_occupancy
  Li  Li0  1  0.33321900  0.89623000  0.08558900  1
  Li  Li1  1  0.10377000  0.43698900  0.41892233  1
  Li  Li2  1  0.56301100  0.66678100  0.75225567  1
  Li  Li3  1  0.43698900  0.10377000  0.58107767  1
  Li  Li4  1  0.66678100  0.56301100  0.24774433  1
  Li  Li5  1  0.89623000  0.33321900  0.91441100  1
  Cr  Cr6  1  0.00000000  0.45159400  0.66666667  1
  Cr  Cr7  1  0.54840600  0.54840600  0.00000000  1
  Cr  Cr8  1  0.45159400  0.00000000  0.33333333  1
  Si  Si9  1  0.00000000  0.19967950  0.16666667  1
  Si  Si10  1  0.19967950  0.00000000  0.83333333  1
  Si  Si11  1  0.80032050  0.80032050  0.50000000  1
  O  O12  1  0.13099000  0.84325200  0.46051600  1
  O  O13  1  0.12060400  0.44294900  0.05963700  1
  O  O14  1  0.32234500  0.87939600  0.72630367  1
  O  O15  1  0.15674800  0.28773800  0.79384933  1
  O  O16  1  0.28773800  0.15674800  0.20615067  1
  O  O17  1  0.71226200  0.86901000  0.12718267  1
  O  O18  1  0.55705100  0.67765500  0.39297033  1
  O  O19  1  0.67765500  0.55705100  0.60702967  1
  O  O20  1  0.44294900  0.12060400  0.94036300  1
  O  O21  1  0.86901000  0.71226200  0.87281733  1
  O  O22  1  0.84325200  0.13099000  0.53948400  1
  O  O23  1  0.87939600  0.32234500  0.27369633  1
