# generated using pymatgen
data_Ti2O3
_symmetry_space_group_name_H-M   'P 1'
_cell_length_a   5.16780216
_cell_length_b   5.16780216
_cell_length_c   9.60760300
_cell_angle_alpha   90.00000000
_cell_angle_beta   90.00000000
_cell_angle_gamma   120.00000000
_symmetry_Int_Tables_number   1
_chemical_formula_structural   Ti2O3
_chemical_formula_sum   'Ti8 O12'
_cell_volume   222.20684815
_cell_formula_units_Z   4
loop_
 _symmetry_equiv_pos_site_id
 _symmetry_equiv_pos_as_xyz
  1  'x, y, z'
loop_
 _atom_site_type_symbol
 _atom_site_label
 _atom_site_symmetry_multiplicity
 _atom_site_fract_x
 _atom_site_fract_y
 _atom_site_fract_z
 _atom_site_occupancy
  Ti  Ti0  1  0.33333333  0.66666667  0.97654800  1
  Ti  Ti1  1  0.33333333  0.66666667  0.25000000  1
  Ti  Ti2  1  0.00000000  0.00000000  0.00000000  1
  Ti  Ti3  1  0.00000000  0.00000000  0.50000000  1
  Ti  Ti4  1  0.33333333  0.66666667  0.52345200  1
  Ti  Ti5  1  0.66666667  0.33333333  0.75000000  1
  Ti  Ti6  1  0.66666667  0.33333333  0.02345200  1
  Ti  Ti7  1  0.66666667  0.33333333  0.47654800  1
  O  O8  1  0.02585733  0.67555467  0.11641700  1
  O  O9  1  0.97414267  0.64969733  0.61641700  1
  O  O10  1  0.02585733  0.35030267  0.38358300  1
  O  O11  1  0.97414267  0.32444533  0.88358300  1
  O  O12  1  0.32444533  0.35030267  0.11641700  1
  O  O13  1  0.35030267  0.32444533  0.61641700  1
  O  O14  1  0.32444533  0.97414267  0.38358300  1
  O  O15  1  0.35030267  0.02585733  0.88358300  1
  O  O16  1  0.64969733  0.67555467  0.38358300  1
  O  O17  1  0.67555467  0.64969733  0.88358300  1
  O  O18  1  0.64969733  0.97414267  0.11641700  1
  O  O19  1  0.67555467  0.02585733  0.61641700  1
