# generated using pymatgen
data_Li3Cr(CoO2)4
_symmetry_space_group_name_H-M   'P 1'
_cell_length_a   10.15347000
_cell_length_b   5.82875600
_cell_length_c   5.88139878
_cell_angle_alpha   90.00000000
_cell_angle_beta   124.70651866
_cell_angle_gamma   90.00000000
_symmetry_Int_Tables_number   1
_chemical_formula_structural   Li3Cr(CoO2)4
_chemical_formula_sum   'Li6 Cr2 Co8 O16'
_cell_volume   286.14402918
_cell_formula_units_Z   2
loop_
 _symmetry_equiv_pos_site_id
 _symmetry_equiv_pos_as_xyz
  1  'x, y, z'
loop_
 _atom_site_type_symbol
 _atom_site_label
 _atom_site_symmetry_multiplicity
 _atom_site_fract_x
 _atom_site_fract_y
 _atom_site_fract_z
 _atom_site_occupancy
  Li  Li0  1  0.25000000  0.75000000  0.50000000  1
  Li  Li1  1  0.00000000  0.00000000  0.50000000  1
  Li  Li2  1  0.25000000  0.25000000  0.50000000  1
  Li  Li3  1  0.75000000  0.25000000  0.50000000  1
  Li  Li4  1  0.50000000  0.50000000  0.50000000  1
  Li  Li5  1  0.75000000  0.75000000  0.50000000  1
  Cr  Cr6  1  0.00000000  0.50000000  0.00000000  1
  Cr  Cr7  1  0.50000000  0.00000000  0.00000000  1
  Co  Co8  1  0.00000000  0.50000000  0.50000000  1
  Co  Co9  1  0.00000000  0.00000000  0.00000000  1
  Co  Co10  1  0.25000000  0.75000000  0.00000000  1
  Co  Co11  1  0.25000000  0.25000000  0.00000000  1
  Co  Co12  1  0.50000000  0.00000000  0.50000000  1
  Co  Co13  1  0.50000000  0.50000000  0.00000000  1
  Co  Co14  1  0.75000000  0.25000000  0.00000000  1
  Co  Co15  1  0.75000000  0.75000000  0.00000000  1
  O  O16  1  0.25667700  0.00000000  0.77866400  1
  O  O17  1  0.01371050  0.25738050  0.76975300  1
  O  O18  1  0.01371050  0.74261950  0.76975300  1
  O  O19  1  0.25107600  0.50000000  0.78058500  1
  O  O20  1  0.24892400  0.00000000  0.21941500  1
  O  O21  1  0.48628950  0.75738050  0.23024700  1
  O  O22  1  0.48628950  0.24261950  0.23024700  1
  O  O23  1  0.24332300  0.50000000  0.22133600  1
  O  O24  1  0.75667700  0.50000000  0.77866400  1
  O  O25  1  0.51371050  0.75738050  0.76975300  1
  O  O26  1  0.51371050  0.24261950  0.76975300  1
  O  O27  1  0.75107600  0.00000000  0.78058500  1
  O  O28  1  0.74892400  0.50000000  0.21941500  1
  O  O29  1  0.98628950  0.25738050  0.23024700  1
  O  O30  1  0.98628950  0.74261950  0.23024700  1
  O  O31  1  0.74332300  0.00000000  0.22133600  1
