# generated using pymatgen
data_Li3Cu3TeO8
_symmetry_space_group_name_H-M   'P 1'
_cell_length_a   6.06344177
_cell_length_b   6.06344177
_cell_length_c   14.73999110
_cell_angle_alpha   90.00000000
_cell_angle_beta   90.00000000
_cell_angle_gamma   120.00000000
_symmetry_Int_Tables_number   1
_chemical_formula_structural   Li3Cu3TeO8
_chemical_formula_sum   'Li9 Cu9 Te3 O24'
_cell_volume   469.31698911
_cell_formula_units_Z   3
loop_
 _symmetry_equiv_pos_site_id
 _symmetry_equiv_pos_as_xyz
  1  'x, y, z'
loop_
 _atom_site_type_symbol
 _atom_site_label
 _atom_site_symmetry_multiplicity
 _atom_site_fract_x
 _atom_site_fract_y
 _atom_site_fract_z
 _atom_site_occupancy
  Li  Li0  1  0.33333333  0.16666667  0.16666667  1
  Li  Li1  1  0.16666667  0.33333333  0.83333333  1
  Li  Li2  1  0.83333333  0.16666667  0.16666667  1
  Li  Li3  1  0.00000000  0.50000000  0.50000000  1
  Li  Li4  1  0.83333333  0.66666667  0.16666667  1
  Li  Li5  1  0.50000000  0.50000000  0.50000000  1
  Li  Li6  1  0.66666667  0.83333333  0.83333333  1
  Li  Li7  1  0.50000000  0.00000000  0.50000000  1
  Li  Li8  1  0.16666667  0.83333333  0.83333333  1
  Cu  Cu9  1  0.00000000  0.50000000  0.00000000  1
  Cu  Cu10  1  0.16666667  0.33333333  0.33333333  1
  Cu  Cu11  1  0.50000000  0.50000000  0.00000000  1
  Cu  Cu12  1  0.66666667  0.83333333  0.33333333  1
  Cu  Cu13  1  0.83333333  0.66666667  0.66666667  1
  Cu  Cu14  1  0.16666667  0.83333333  0.33333333  1
  Cu  Cu15  1  0.33333333  0.16666667  0.66666667  1
  Cu  Cu16  1  0.50000000  0.00000000  0.00000000  1
  Cu  Cu17  1  0.83333333  0.16666667  0.66666667  1
  Te  Te18  1  0.00000000  0.00000000  0.00000000  1
  Te  Te19  1  0.66666667  0.33333333  0.33333333  1
  Te  Te20  1  0.33333333  0.66666667  0.66666667  1
  O  O21  1  0.33333333  0.66666667  0.39832667  1
  O  O22  1  0.69890000  0.84945000  0.07734100  1
  O  O23  1  0.15055000  0.30110000  0.07734100  1
  O  O24  1  0.33333333  0.66666667  0.93500667  1
  O  O25  1  0.15055000  0.84945000  0.07734100  1
  O  O26  1  0.96776667  0.48388333  0.25599233  1
  O  O27  1  0.51611667  0.03223333  0.25599233  1
  O  O28  1  0.51611667  0.48388333  0.25599233  1
  O  O29  1  0.00000000  0.00000000  0.73166000  1
  O  O30  1  0.36556667  0.18278333  0.41067433  1
  O  O31  1  0.81721667  0.63443333  0.41067433  1
  O  O32  1  0.00000000  0.00000000  0.26834000  1
  O  O33  1  0.81721667  0.18278333  0.41067433  1
  O  O34  1  0.63443333  0.81721667  0.58932567  1
  O  O35  1  0.18278333  0.36556667  0.58932567  1
  O  O36  1  0.18278333  0.81721667  0.58932567  1
  O  O37  1  0.66666667  0.33333333  0.06499333  1
  O  O38  1  0.03223333  0.51611667  0.74400767  1
  O  O39  1  0.48388333  0.96776667  0.74400767  1
  O  O40  1  0.66666667  0.33333333  0.60167333  1
  O  O41  1  0.48388333  0.51611667  0.74400767  1
  O  O42  1  0.30110000  0.15055000  0.92265900  1
  O  O43  1  0.84945000  0.69890000  0.92265900  1
  O  O44  1  0.84945000  0.15055000  0.92265900  1
