# generated using pymatgen
data_LiFe2O3F
_symmetry_space_group_name_H-M   'P 1'
_cell_length_a   13.52781000
_cell_length_b   8.49945800
_cell_length_c   5.99067833
_cell_angle_alpha   90.00000000
_cell_angle_beta   115.79813549
_cell_angle_gamma   90.00000000
_symmetry_Int_Tables_number   1
_chemical_formula_structural   LiFe2O3F
_chemical_formula_sum   'Li8 Fe16 O24 F8'
_cell_volume   620.15159476
_cell_formula_units_Z   8
loop_
 _symmetry_equiv_pos_site_id
 _symmetry_equiv_pos_as_xyz
  1  'x, y, z'
loop_
 _atom_site_type_symbol
 _atom_site_label
 _atom_site_symmetry_multiplicity
 _atom_site_fract_x
 _atom_site_fract_y
 _atom_site_fract_z
 _atom_site_occupancy
  Li  Li0  1  0.13141700  0.11969200  0.89860200  1
  Li  Li1  1  0.86648950  0.12972750  0.60654400  1
  Li  Li2  1  0.13141700  0.88030800  0.39860200  1
  Li  Li3  1  0.86648950  0.87027250  0.10654400  1
  Li  Li4  1  0.63141700  0.61969200  0.89860200  1
  Li  Li5  1  0.36648950  0.62972750  0.60654400  1
  Li  Li6  1  0.63141700  0.38030800  0.39860200  1
  Li  Li7  1  0.36648950  0.37027250  0.10654400  1
  Fe  Fe8  1  0.49351550  0.72811050  0.22860000  1
  Fe  Fe9  1  0.25676300  0.24689600  0.49527400  1
  Fe  Fe10  1  0.25676300  0.75310400  0.99527400  1
  Fe  Fe11  1  0.37289350  0.00237450  0.86287100  1
  Fe  Fe12  1  0.62735000  0.98555100  0.13574400  1
  Fe  Fe13  1  0.62735000  0.01444900  0.63574400  1
  Fe  Fe14  1  0.37289350  0.99762550  0.36287100  1
  Fe  Fe15  1  0.49351550  0.27188950  0.72860000  1
  Fe  Fe16  1  0.99351550  0.22811050  0.22860000  1
  Fe  Fe17  1  0.75676300  0.74689600  0.49527400  1
  Fe  Fe18  1  0.75676300  0.25310400  0.99527400  1
  Fe  Fe19  1  0.87289350  0.50237450  0.86287100  1
  Fe  Fe20  1  0.12735000  0.48555100  0.13574400  1
  Fe  Fe21  1  0.12735000  0.51444900  0.63574400  1
  Fe  Fe22  1  0.87289350  0.49762550  0.36287100  1
  Fe  Fe23  1  0.99351550  0.77188950  0.72860000  1
  O  O24  1  0.62494150  0.75489050  0.15816700  1
  O  O25  1  0.37689800  0.76230100  0.34495600  1
  O  O26  1  0.37808750  0.76242750  0.89027300  1
  O  O27  1  0.50440800  0.98211600  0.25834900  1
  O  O28  1  0.73230650  0.98438450  0.49210300  1
  O  O29  1  0.26557250  0.99028450  0.00919200  1
  O  O30  1  0.73230650  0.01561550  0.99210300  1
  O  O31  1  0.26557250  0.00971550  0.50919200  1
  O  O32  1  0.50440800  0.01788400  0.75834900  1
  O  O33  1  0.37689800  0.23769900  0.84495600  1
  O  O34  1  0.62494150  0.24510950  0.65816700  1
  O  O35  1  0.37808750  0.23757250  0.39027300  1
  O  O36  1  0.12494150  0.25489050  0.15816700  1
  O  O37  1  0.87689800  0.26230100  0.34495600  1
  O  O38  1  0.87808750  0.26242750  0.89027300  1
  O  O39  1  0.00440800  0.48211600  0.25834900  1
  O  O40  1  0.23230650  0.48438450  0.49210300  1
  O  O41  1  0.76557250  0.49028450  0.00919200  1
  O  O42  1  0.23230650  0.51561550  0.99210300  1
  O  O43  1  0.76557250  0.50971550  0.50919200  1
  O  O44  1  0.00440800  0.51788400  0.75834900  1
  O  O45  1  0.87689800  0.73769900  0.84495600  1
  O  O46  1  0.12494150  0.74510950  0.65816700  1
  O  O47  1  0.87808750  0.73757250  0.39027300  1
  F  F48  1  0.99802050  0.99905250  0.75310300  1
  F  F49  1  0.62133500  0.75087500  0.61622300  1
  F  F50  1  0.62133500  0.24912500  0.11622300  1
  F  F51  1  0.99802050  0.00094750  0.25310300  1
  F  F52  1  0.49802050  0.49905250  0.75310300  1
  F  F53  1  0.12133500  0.25087500  0.61622300  1
  F  F54  1  0.12133500  0.74912500  0.11622300  1
  F  F55  1  0.49802050  0.50094750  0.25310300  1
