# generated using pymatgen
data_Li2V2OF6
_symmetry_space_group_name_H-M   'P 1'
_cell_length_a   5.48294108
_cell_length_b   6.59695278
_cell_length_c   8.76891012
_cell_angle_alpha   107.74380723
_cell_angle_beta   104.69455636
_cell_angle_gamma   85.74420113
_symmetry_Int_Tables_number   1
_chemical_formula_structural   Li2V2OF6
_chemical_formula_sum   'Li4 V4 O2 F12'
_cell_volume   292.20668244
_cell_formula_units_Z   2
loop_
 _symmetry_equiv_pos_site_id
 _symmetry_equiv_pos_as_xyz
  1  'x, y, z'
loop_
 _atom_site_type_symbol
 _atom_site_label
 _atom_site_symmetry_multiplicity
 _atom_site_fract_x
 _atom_site_fract_y
 _atom_site_fract_z
 _atom_site_occupancy
  Li  Li0  1  0.88136800  0.57813600  0.26277100  1
  Li  Li1  1  0.11863200  0.42186400  0.73722900  1
  Li  Li2  1  0.43855000  0.76961100  0.37395600  1
  Li  Li3  1  0.56145000  0.23038900  0.62604400  1
  V  V4  1  0.32725600  0.99853100  0.81633700  1
  V  V5  1  0.77539300  0.78334600  0.69568500  1
  V  V6  1  0.67274400  0.00146900  0.18366300  1
  V  V7  1  0.22460700  0.21665400  0.30431500  1
  O  O8  1  0.54786100  0.10675000  0.37468800  1
  O  O9  1  0.45213900  0.89325000  0.62531200  1
  F  F10  1  0.59554800  0.71160100  0.15223800  1
  F  F11  1  0.40445200  0.28839900  0.84776200  1
  F  F12  1  0.04870600  0.93775600  0.26982900  1
  F  F13  1  0.95129400  0.06224400  0.73017100  1
  F  F14  1  0.30969600  0.08677400  0.06895300  1
  F  F15  1  0.69030400  0.91322600  0.93104700  1
  F  F16  1  0.84180800  0.26748700  0.19907200  1
  F  F17  1  0.15819200  0.73251300  0.80092800  1
  F  F18  1  0.24371300  0.50499700  0.29275700  1
  F  F19  1  0.75628700  0.49500300  0.70724300  1
  F  F20  1  0.79069700  0.68042500  0.46254800  1
  F  F21  1  0.20930300  0.31957500  0.53745200  1
