# generated using pymatgen
data_Li2Mn2CuO6
_symmetry_space_group_name_H-M   'P 1'
_cell_length_a   5.01807600
_cell_length_b   8.90237400
_cell_length_c   10.31635300
_cell_angle_alpha   90.00000000
_cell_angle_beta   90.00000000
_cell_angle_gamma   90.00000000
_symmetry_Int_Tables_number   1
_chemical_formula_structural   Li2Mn2CuO6
_chemical_formula_sum   'Li8 Mn8 Cu4 O24'
_cell_volume   460.86026404
_cell_formula_units_Z   4
loop_
 _symmetry_equiv_pos_site_id
 _symmetry_equiv_pos_as_xyz
  1  'x, y, z'
loop_
 _atom_site_type_symbol
 _atom_site_label
 _atom_site_symmetry_multiplicity
 _atom_site_fract_x
 _atom_site_fract_y
 _atom_site_fract_z
 _atom_site_occupancy
  Li  Li0  1  0.57659300  0.25000000  0.25000000  1
  Li  Li1  1  0.42340700  0.25000000  0.75000000  1
  Li  Li2  1  0.07659300  0.25000000  0.25000000  1
  Li  Li3  1  0.92340700  0.25000000  0.75000000  1
  Li  Li4  1  0.07659300  0.75000000  0.25000000  1
  Li  Li5  1  0.92340700  0.75000000  0.75000000  1
  Li  Li6  1  0.57659300  0.75000000  0.25000000  1
  Li  Li7  1  0.42340700  0.75000000  0.75000000  1
  Mn  Mn8  1  0.50000000  0.16461750  0.00000000  1
  Mn  Mn9  1  0.50000000  0.33538250  0.50000000  1
  Mn  Mn10  1  0.00000000  0.16461750  0.50000000  1
  Mn  Mn11  1  0.00000000  0.33538250  0.00000000  1
  Mn  Mn12  1  0.00000000  0.66461750  0.00000000  1
  Mn  Mn13  1  0.00000000  0.83538250  0.50000000  1
  Mn  Mn14  1  0.50000000  0.66461750  0.50000000  1
  Mn  Mn15  1  0.50000000  0.83538250  0.00000000  1
  Cu  Cu16  1  0.50000000  0.00000000  0.50000000  1
  Cu  Cu17  1  0.00000000  0.00000000  0.00000000  1
  Cu  Cu18  1  0.00000000  0.50000000  0.50000000  1
  Cu  Cu19  1  0.50000000  0.50000000  0.00000000  1
  O  O20  1  0.68427000  0.18572800  0.60708500  1
  O  O21  1  0.81573000  0.31427200  0.39291500  1
  O  O22  1  0.68427000  0.31427200  0.89291500  1
  O  O23  1  0.31573000  0.31427200  0.10708500  1
  O  O24  1  0.33741300  0.00000000  0.09441200  1
  O  O25  1  0.16258700  0.00000000  0.59441200  1
  O  O26  1  0.83741300  0.00000000  0.40558800  1
  O  O27  1  0.31573000  0.18572800  0.39291500  1
  O  O28  1  0.66258700  0.00000000  0.90558800  1
  O  O29  1  0.18427000  0.18572800  0.89291500  1
  O  O30  1  0.81573000  0.18572800  0.10708500  1
  O  O31  1  0.18427000  0.31427200  0.60708500  1
  O  O32  1  0.18427000  0.68572800  0.60708500  1
  O  O33  1  0.31573000  0.81427200  0.39291500  1
  O  O34  1  0.18427000  0.81427200  0.89291500  1
  O  O35  1  0.81573000  0.81427200  0.10708500  1
  O  O36  1  0.83741300  0.50000000  0.09441200  1
  O  O37  1  0.66258700  0.50000000  0.59441200  1
  O  O38  1  0.33741300  0.50000000  0.40558800  1
  O  O39  1  0.81573000  0.68572800  0.39291500  1
  O  O40  1  0.16258700  0.50000000  0.90558800  1
  O  O41  1  0.68427000  0.68572800  0.89291500  1
  O  O42  1  0.31573000  0.68572800  0.10708500  1
  O  O43  1  0.68427000  0.81427200  0.60708500  1
