# generated using pymatgen
data_Li4Ni3TeO8
_symmetry_space_group_name_H-M   'P 1'
_cell_length_a   6.03288758
_cell_length_b   6.03288758
_cell_length_c   14.58154469
_cell_angle_alpha   90.00000000
_cell_angle_beta   90.00000000
_cell_angle_gamma   120.00000000
_symmetry_Int_Tables_number   1
_chemical_formula_structural   Li4Ni3TeO8
_chemical_formula_sum   'Li12 Ni9 Te3 O24'
_cell_volume   459.60487877
_cell_formula_units_Z   3
loop_
 _symmetry_equiv_pos_site_id
 _symmetry_equiv_pos_as_xyz
  1  'x, y, z'
loop_
 _atom_site_type_symbol
 _atom_site_label
 _atom_site_symmetry_multiplicity
 _atom_site_fract_x
 _atom_site_fract_y
 _atom_site_fract_z
 _atom_site_occupancy
  Li  Li0  1  0.00000000  0.00000000  0.50000000  1
  Li  Li1  1  0.83333333  0.66666667  0.16666667  1
  Li  Li2  1  0.00000000  0.50000000  0.50000000  1
  Li  Li3  1  0.50000000  0.50000000  0.50000000  1
  Li  Li4  1  0.66666667  0.33333333  0.83333333  1
  Li  Li5  1  0.50000000  0.00000000  0.50000000  1
  Li  Li6  1  0.66666667  0.83333333  0.83333333  1
  Li  Li7  1  0.16666667  0.83333333  0.83333333  1
  Li  Li8  1  0.33333333  0.66666667  0.16666667  1
  Li  Li9  1  0.16666667  0.33333333  0.83333333  1
  Li  Li10  1  0.33333333  0.16666667  0.16666667  1
  Li  Li11  1  0.83333333  0.16666667  0.16666667  1
  Ni  Ni12  1  0.83333333  0.66666667  0.66666667  1
  Ni  Ni13  1  0.66666667  0.83333333  0.33333333  1
  Ni  Ni14  1  0.83333333  0.16666667  0.66666667  1
  Ni  Ni15  1  0.50000000  0.00000000  0.00000000  1
  Ni  Ni16  1  0.33333333  0.16666667  0.66666667  1
  Ni  Ni17  1  0.50000000  0.50000000  0.00000000  1
  Ni  Ni18  1  0.16666667  0.33333333  0.33333333  1
  Ni  Ni19  1  0.00000000  0.50000000  0.00000000  1
  Ni  Ni20  1  0.16666667  0.83333333  0.33333333  1
  Te  Te21  1  0.66666667  0.33333333  0.33333333  1
  Te  Te22  1  0.33333333  0.66666667  0.66666667  1
  Te  Te23  1  1.00000000  1.00000000  0.00000000  1
  O  O24  1  0.00000000  0.00000000  0.74058900  1
  O  O25  1  0.82069267  0.64138533  0.41063033  1
  O  O26  1  0.35861467  0.17930733  0.41063033  1
  O  O27  1  0.00000000  0.00000000  0.25941100  1
  O  O28  1  0.82069267  0.17930733  0.41063033  1
  O  O29  1  0.17930733  0.35861467  0.58936967  1
  O  O30  1  0.64138533  0.82069267  0.58936967  1
  O  O31  1  0.17930733  0.82069267  0.58936967  1
  O  O32  1  0.66666667  0.33333333  0.07392233  1
  O  O33  1  0.48735933  0.97471867  0.74396367  1
  O  O34  1  0.02528133  0.51264067  0.74396367  1
  O  O35  1  0.66666667  0.33333333  0.59274433  1
  O  O36  1  0.48735933  0.51264067  0.74396367  1
  O  O37  1  0.84597400  0.69194800  0.92270300  1
  O  O38  1  0.30805200  0.15402600  0.92270300  1
  O  O39  1  0.84597400  0.15402600  0.92270300  1
  O  O40  1  0.33333333  0.66666667  0.40725567  1
  O  O41  1  0.15402600  0.30805200  0.07729700  1
  O  O42  1  0.69194800  0.84597400  0.07729700  1
  O  O43  1  0.33333333  0.66666667  0.92607767  1
  O  O44  1  0.15402600  0.84597400  0.07729700  1
  O  O45  1  0.51264067  0.02528133  0.25603633  1
  O  O46  1  0.97471867  0.48735933  0.25603633  1
  O  O47  1  0.51264067  0.48735933  0.25603633  1
