# generated using pymatgen
data_Li6CoCu3(PO4)4
_symmetry_space_group_name_H-M   'P 1'
_cell_length_a   5.07791576
_cell_length_b   6.26020451
_cell_length_c   10.45222659
_cell_angle_alpha   90.01820343
_cell_angle_beta   90.92787063
_cell_angle_gamma   90.13556082
_symmetry_Int_Tables_number   1
_chemical_formula_structural   Li6CoCu3(PO4)4
_chemical_formula_sum   'Li6 Co1 Cu3 P4 O16'
_cell_volume   332.21912876
_cell_formula_units_Z   1
loop_
 _symmetry_equiv_pos_site_id
 _symmetry_equiv_pos_as_xyz
  1  'x, y, z'
loop_
 _atom_site_type_symbol
 _atom_site_label
 _atom_site_symmetry_multiplicity
 _atom_site_fract_x
 _atom_site_fract_y
 _atom_site_fract_z
 _atom_site_occupancy
  Li  Li0  1  0.89670400  0.48896800  0.88536000  1
  Li  Li1  1  0.89691800  0.01105300  0.88517400  1
  Li  Li2  1  0.61979000  0.49400500  0.36710200  1
  Li  Li3  1  0.62028100  0.00595000  0.36755900  1
  Li  Li4  1  0.35786400  0.99649900  0.64185900  1
  Li  Li5  1  0.35796000  0.50385900  0.64172800  1
  Co  Co6  1  0.07853800  0.24302700  0.27619200  1
  Cu  Cu7  1  0.85557900  0.75012500  0.65886200  1
  Cu  Cu8  1  0.66171500  0.75108200  0.16422400  1
  Cu  Cu9  1  0.35259200  0.25012700  0.86112200  1
  P  P10  1  0.86941100  0.25002200  0.58859200  1
  P  P11  1  0.61458100  0.25134400  0.11160500  1
  P  P12  1  0.40169700  0.75013600  0.89739400  1
  P  P13  1  0.12822300  0.74954000  0.40137300  1
  O  O14  1  0.79036600  0.25012600  0.44377300  1
  O  O15  1  0.82394000  0.75061500  0.38249600  1
  O  O16  1  0.74489600  0.05169600  0.65647900  1
  O  O17  1  0.74519200  0.44808300  0.65646500  1
  O  O18  1  0.74310800  0.05938400  0.18748100  1
  O  O19  1  0.74303200  0.44524800  0.18456200  1
  O  O20  1  0.70086500  0.75000900  0.86556400  1
  O  O21  1  0.71463200  0.24884600  0.97054400  1
  O  O22  1  0.35762000  0.75051500  0.04040100  1
  O  O23  1  0.31347800  0.25005100  0.11524900  1
  O  O24  1  0.26531700  0.55077300  0.83049300  1
  O  O25  1  0.26558600  0.94895200  0.83044500  1
  O  O26  1  0.24910600  0.95623600  0.34318500  1
  O  O27  1  0.24617600  0.54290500  0.34373400  1
  O  O28  1  0.17042700  0.25004600  0.60499200  1
  O  O29  1  0.19914100  0.75077700  0.54945200  1
