# generated using pymatgen
data_Li3Cr3SiO8
_symmetry_space_group_name_H-M   'P 1'
_cell_length_a   5.03114947
_cell_length_b   5.80370683
_cell_length_c   5.15313097
_cell_angle_alpha   90.00000000
_cell_angle_beta   108.10089517
_cell_angle_gamma   90.00000000
_symmetry_Int_Tables_number   1
_chemical_formula_structural   Li3Cr3SiO8
_chemical_formula_sum   'Li3 Cr3 Si1 O8'
_cell_volume   143.02137800
_cell_formula_units_Z   1
loop_
 _symmetry_equiv_pos_site_id
 _symmetry_equiv_pos_as_xyz
  1  'x, y, z'
loop_
 _atom_site_type_symbol
 _atom_site_label
 _atom_site_symmetry_multiplicity
 _atom_site_fract_x
 _atom_site_fract_y
 _atom_site_fract_z
 _atom_site_occupancy
  Li  Li0  1  0.00000000  0.50000000  0.00000000  1
  Li  Li1  1  0.50000000  0.76363700  0.00000000  1
  Li  Li2  1  0.50000000  0.23636300  0.00000000  1
  Cr  Cr3  1  0.50000000  0.50000000  0.50000000  1
  Cr  Cr4  1  0.00000000  0.75549800  0.50000000  1
  Cr  Cr5  1  0.00000000  0.24450200  0.50000000  1
  Si  Si6  1  0.50000000  0.00000000  0.50000000  1
  O  O7  1  0.27205350  0.00000000  0.70580950  1
  O  O8  1  0.72794650  0.00000000  0.29419050  1
  O  O9  1  0.23290050  0.50000000  0.72872250  1
  O  O10  1  0.76709950  0.50000000  0.27127750  1
  O  O11  1  0.28208100  0.76793300  0.29222600  1
  O  O12  1  0.71791900  0.76793300  0.70777400  1
  O  O13  1  0.28208100  0.23206700  0.29222600  1
  O  O14  1  0.71791900  0.23206700  0.70777400  1
