# generated using pymatgen
data_LiFe2OF5
_symmetry_space_group_name_H-M   'P 1'
_cell_length_a   5.66210400
_cell_length_b   17.20707400
_cell_length_c   5.43179139
_cell_angle_alpha   90.00000000
_cell_angle_beta   121.41131287
_cell_angle_gamma   90.00000000
_symmetry_Int_Tables_number   1
_chemical_formula_structural   LiFe2OF5
_chemical_formula_sum   'Li4 Fe8 O4 F20'
_cell_volume   451.65307271
_cell_formula_units_Z   4
loop_
 _symmetry_equiv_pos_site_id
 _symmetry_equiv_pos_as_xyz
  1  'x, y, z'
loop_
 _atom_site_type_symbol
 _atom_site_label
 _atom_site_symmetry_multiplicity
 _atom_site_fract_x
 _atom_site_fract_y
 _atom_site_fract_z
 _atom_site_occupancy
  Li  Li0  1  0.50000000  0.04450500  0.50000000  1
  Li  Li1  1  0.50000000  0.27746200  0.00000000  1
  Li  Li2  1  0.00000000  0.54450500  0.50000000  1
  Li  Li3  1  0.00000000  0.77746200  0.00000000  1
  Fe  Fe4  1  0.00000000  0.03726800  0.50000000  1
  Fe  Fe5  1  0.00000000  0.37768500  0.50000000  1
  Fe  Fe6  1  0.50000000  0.21123900  0.50000000  1
  Fe  Fe7  1  0.50000000  0.45845300  0.00000000  1
  Fe  Fe8  1  0.50000000  0.53726800  0.50000000  1
  Fe  Fe9  1  0.50000000  0.87768500  0.50000000  1
  Fe  Fe10  1  0.00000000  0.71123900  0.50000000  1
  Fe  Fe11  1  0.00000000  0.95845300  0.00000000  1
  O  O12  1  0.72680850  0.46176250  0.43037600  1
  O  O13  1  0.27319150  0.46176250  0.56962400  1
  O  O14  1  0.22680850  0.96176250  0.43037600  1
  O  O15  1  0.77319150  0.96176250  0.56962400  1
  F  F16  1  0.74206950  0.29307550  0.46942300  1
  F  F17  1  0.76885600  0.37298700  0.06446200  1
  F  F18  1  0.22057050  0.03598450  0.93518500  1
  F  F19  1  0.23114400  0.37298700  0.93553800  1
  F  F20  1  0.30220200  0.21072200  0.10056600  1
  F  F21  1  0.25745900  0.11976200  0.50262400  1
  F  F22  1  0.25793050  0.29307550  0.53057700  1
  F  F23  1  0.74254100  0.11976200  0.49737600  1
  F  F24  1  0.69779800  0.21072200  0.89943400  1
  F  F25  1  0.77942950  0.03598450  0.06481500  1
  F  F26  1  0.24206950  0.79307550  0.46942300  1
  F  F27  1  0.26885600  0.87298700  0.06446200  1
  F  F28  1  0.72057050  0.53598450  0.93518500  1
  F  F29  1  0.73114400  0.87298700  0.93553800  1
  F  F30  1  0.80220200  0.71072200  0.10056600  1
  F  F31  1  0.75745900  0.61976200  0.50262400  1
  F  F32  1  0.75793050  0.79307550  0.53057700  1
  F  F33  1  0.24254100  0.61976200  0.49737600  1
  F  F34  1  0.19779800  0.71072200  0.89943400  1
  F  F35  1  0.27942950  0.53598450  0.06481500  1
