# generated using pymatgen
data_LaAgO3
_symmetry_space_group_name_H-M   'P 1'
_cell_length_a   5.93082757
_cell_length_b   5.93082757
_cell_length_c   13.78707545
_cell_angle_alpha   90.00000000
_cell_angle_beta   90.00000000
_cell_angle_gamma   120.00000000
_symmetry_Int_Tables_number   1
_chemical_formula_structural   LaAgO3
_chemical_formula_sum   'La6 Ag6 O18'
_cell_volume   419.98461258
_cell_formula_units_Z   6
loop_
 _symmetry_equiv_pos_site_id
 _symmetry_equiv_pos_as_xyz
  1  'x, y, z'
loop_
 _atom_site_type_symbol
 _atom_site_label
 _atom_site_symmetry_multiplicity
 _atom_site_fract_x
 _atom_site_fract_y
 _atom_site_fract_z
 _atom_site_occupancy
  La  La0  1  0.33333333  0.66666667  0.92459967  1
  La  La1  1  0.33333333  0.66666667  0.42459967  1
  La  La2  1  0.00000000  0.00000000  0.25793300  1
  La  La3  1  0.00000000  0.00000000  0.75793300  1
  La  La4  1  0.66666667  0.33333333  0.59126633  1
  La  La5  1  0.66666667  0.33333333  0.09126633  1
  Ag  Ag6  1  0.33333333  0.66666667  0.66444767  1
  Ag  Ag7  1  0.33333333  0.66666667  0.16444767  1
  Ag  Ag8  1  0.00000000  0.00000000  0.99778100  1
  Ag  Ag9  1  0.00000000  0.00000000  0.49778100  1
  Ag  Ag10  1  0.66666667  0.33333333  0.33111433  1
  Ag  Ag11  1  0.66666667  0.33333333  0.83111433  1
  O  O12  1  0.60757433  0.59660767  0.24200167  1
  O  O13  1  0.65570000  0.92994100  0.07533500  1
  O  O14  1  0.27424100  0.34430000  0.07533500  1
  O  O15  1  0.40339233  0.01096667  0.24200167  1
  O  O16  1  0.98903333  0.39242567  0.24200167  1
  O  O17  1  0.07005900  0.72575900  0.07533500  1
  O  O18  1  0.27424100  0.92994100  0.57533500  1
  O  O19  1  0.32236667  0.26327433  0.40866833  1
  O  O20  1  0.94090767  0.67763333  0.40866833  1
  O  O21  1  0.07005900  0.34430000  0.57533500  1
  O  O22  1  0.65570000  0.72575900  0.57533500  1
  O  O23  1  0.73672567  0.05909233  0.40866833  1
  O  O24  1  0.94090767  0.26327433  0.90866833  1
  O  O25  1  0.98903333  0.59660767  0.74200167  1
  O  O26  1  0.60757433  0.01096667  0.74200167  1
  O  O27  1  0.73672567  0.67763333  0.90866833  1
  O  O28  1  0.32236667  0.05909233  0.90866833  1
  O  O29  1  0.40339233  0.39242567  0.74200167  1
