# generated using pymatgen
data_Li2Mn2OF6
_symmetry_space_group_name_H-M   'P 1'
_cell_length_a   9.85078127
_cell_length_b   9.92877473
_cell_length_c   5.49404377
_cell_angle_alpha   90.00000000
_cell_angle_beta   97.22390188
_cell_angle_gamma   90.00000000
_symmetry_Int_Tables_number   1
_chemical_formula_structural   Li2Mn2OF6
_chemical_formula_sum   'Li8 Mn8 O4 F24'
_cell_volume   533.08615957
_cell_formula_units_Z   4
loop_
 _symmetry_equiv_pos_site_id
 _symmetry_equiv_pos_as_xyz
  1  'x, y, z'
loop_
 _atom_site_type_symbol
 _atom_site_label
 _atom_site_symmetry_multiplicity
 _atom_site_fract_x
 _atom_site_fract_y
 _atom_site_fract_z
 _atom_site_occupancy
  Li  Li0  1  0.16462400  0.35853200  0.93836700  1
  Li  Li1  1  0.83537600  0.35853200  0.56163300  1
  Li  Li2  1  0.16462400  0.64146800  0.43836700  1
  Li  Li3  1  0.83537600  0.64146800  0.06163300  1
  Li  Li4  1  0.66462400  0.85853200  0.93836700  1
  Li  Li5  1  0.33537600  0.85853200  0.56163300  1
  Li  Li6  1  0.66462400  0.14146800  0.43836700  1
  Li  Li7  1  0.33537600  0.14146800  0.06163300  1
  Mn  Mn8  1  0.88234600  0.87320200  0.51123500  1
  Mn  Mn9  1  0.11765400  0.12679800  0.48876500  1
  Mn  Mn10  1  0.88234600  0.12679800  0.01123500  1
  Mn  Mn11  1  0.11765400  0.87320200  0.98876500  1
  Mn  Mn12  1  0.38234600  0.37320200  0.51123500  1
  Mn  Mn13  1  0.61765400  0.62679800  0.48876500  1
  Mn  Mn14  1  0.38234600  0.62679800  0.01123500  1
  Mn  Mn15  1  0.61765400  0.37320200  0.98876500  1
  O  O16  1  0.00000000  0.97454200  0.75000000  1
  O  O17  1  0.00000000  0.02545800  0.25000000  1
  O  O18  1  0.50000000  0.47454200  0.75000000  1
  O  O19  1  0.50000000  0.52545800  0.25000000  1
  F  F20  1  0.23161450  0.47732850  0.57720100  1
  F  F21  1  0.99179750  0.26173750  0.50094600  1
  F  F22  1  0.00820250  0.73826250  0.49905400  1
  F  F23  1  0.76838550  0.52267150  0.42279900  1
  F  F24  1  0.26290650  0.72265450  0.76100700  1
  F  F25  1  0.73709350  0.72265450  0.73899300  1
  F  F26  1  0.23161450  0.52267150  0.07720100  1
  F  F27  1  0.00820250  0.26173750  0.99905400  1
  F  F28  1  0.99179750  0.73826250  0.00094600  1
  F  F29  1  0.76838550  0.47732850  0.92279900  1
  F  F30  1  0.26290650  0.27734550  0.26100700  1
  F  F31  1  0.73709350  0.27734550  0.23899300  1
  F  F32  1  0.73161450  0.97732850  0.57720100  1
  F  F33  1  0.49179750  0.76173750  0.50094600  1
  F  F34  1  0.50820250  0.23826250  0.49905400  1
  F  F35  1  0.26838550  0.02267150  0.42279900  1
  F  F36  1  0.76290650  0.22265450  0.76100700  1
  F  F37  1  0.23709350  0.22265450  0.73899300  1
  F  F38  1  0.73161450  0.02267150  0.07720100  1
  F  F39  1  0.50820250  0.76173750  0.99905400  1
  F  F40  1  0.49179750  0.23826250  0.00094600  1
  F  F41  1  0.26838550  0.97732850  0.92279900  1
  F  F42  1  0.76290650  0.77734550  0.26100700  1
  F  F43  1  0.23709350  0.77734550  0.23899300  1
