# generated using pymatgen
data_Li6FeCoP2(CO7)2
_symmetry_space_group_name_H-M   'P 1'
_cell_length_a   4.98670900
_cell_length_b   6.41546100
_cell_length_c   8.39748036
_cell_angle_alpha   90.00000000
_cell_angle_beta   94.58969906
_cell_angle_gamma   90.00000000
_symmetry_Int_Tables_number   1
_chemical_formula_structural   Li6FeCoP2(CO7)2
_chemical_formula_sum   'Li6 Fe1 Co1 P2 C2 O14'
_cell_volume   267.79101020
_cell_formula_units_Z   1
loop_
 _symmetry_equiv_pos_site_id
 _symmetry_equiv_pos_as_xyz
  1  'x, y, z'
loop_
 _atom_site_type_symbol
 _atom_site_label
 _atom_site_symmetry_multiplicity
 _atom_site_fract_x
 _atom_site_fract_y
 _atom_site_fract_z
 _atom_site_occupancy
  Li  Li0  1  0.76435500  0.50000000  0.90413800  1
  Li  Li1  1  0.24797000  0.72902800  0.72377300  1
  Li  Li2  1  0.24797000  0.27097200  0.72377300  1
  Li  Li3  1  0.75139900  0.22809800  0.27633000  1
  Li  Li4  1  0.75139900  0.77190200  0.27633000  1
  Li  Li5  1  0.23681700  0.00000000  0.09635000  1
  Fe  Fe6  1  0.20416900  0.50000000  0.32962400  1
  Co  Co7  1  0.79406200  0.00000000  0.66549200  1
  P  P8  1  0.71910600  0.50000000  0.58594800  1
  P  P9  1  0.28003400  0.00000000  0.41337900  1
  C  C10  1  0.70188000  0.00000000  0.96346900  1
  C  C11  1  0.29865000  0.50000000  0.03749100  1
  O  O12  1  0.94939500  0.00000000  0.92704000  1
  O  O13  1  0.35875100  0.50000000  0.88996300  1
  O  O14  1  0.51027700  0.00000000  0.84783900  1
  O  O15  1  0.82539800  0.68731100  0.69107100  1
  O  O16  1  0.82539800  0.31268900  0.69107100  1
  O  O17  1  0.17441900  0.00000000  0.58149800  1
  O  O18  1  0.40544300  0.50000000  0.56472100  1
  O  O19  1  0.59395100  0.00000000  0.43367300  1
  O  O20  1  0.82782900  0.50000000  0.41890500  1
  O  O21  1  0.17515000  0.81186300  0.30912800  1
  O  O22  1  0.17515000  0.18813700  0.30912800  1
  O  O23  1  0.48831000  0.50000000  0.15366600  1
  O  O24  1  0.64090900  0.00000000  0.11065900  1
  O  O25  1  0.05180400  0.50000000  0.07554400  1
