# generated using pymatgen
data_Mn3(OF3)2
_symmetry_space_group_name_H-M   'P 1'
_cell_length_a   5.50224484
_cell_length_b   4.73458601
_cell_length_c   10.25167487
_cell_angle_alpha   90.00000000
_cell_angle_beta   95.50249226
_cell_angle_gamma   90.00000000
_symmetry_Int_Tables_number   1
_chemical_formula_structural   Mn3(OF3)2
_chemical_formula_sum   'Mn6 O4 F12'
_cell_volume   265.83423173
_cell_formula_units_Z   2
loop_
 _symmetry_equiv_pos_site_id
 _symmetry_equiv_pos_as_xyz
  1  'x, y, z'
loop_
 _atom_site_type_symbol
 _atom_site_label
 _atom_site_symmetry_multiplicity
 _atom_site_fract_x
 _atom_site_fract_y
 _atom_site_fract_z
 _atom_site_occupancy
  Mn  Mn0  1  0.00000000  0.50000000  0.50000000  1
  Mn  Mn1  1  0.76221950  0.97721900  0.25440650  1
  Mn  Mn2  1  0.23778050  0.47721900  0.24559350  1
  Mn  Mn3  1  0.00000000  0.00000000  0.00000000  1
  Mn  Mn4  1  0.76221950  0.52278100  0.75440650  1
  Mn  Mn5  1  0.23778050  0.02278100  0.74559350  1
  O  O6  1  0.98478350  0.68106800  0.32543050  1
  O  O7  1  0.01521650  0.18106800  0.17456950  1
  O  O8  1  0.98478350  0.81893200  0.82543050  1
  O  O9  1  0.01521650  0.31893200  0.67456950  1
  F  F10  1  0.79809150  0.16595300  0.41467850  1
  F  F11  1  0.27872350  0.31302700  0.41458250  1
  F  F12  1  0.48838850  0.76174900  0.31048750  1
  F  F13  1  0.51161150  0.26174900  0.18951250  1
  F  F14  1  0.72127650  0.81302700  0.08541750  1
  F  F15  1  0.20190850  0.66595300  0.08532150  1
  F  F16  1  0.79809150  0.33404700  0.91467850  1
  F  F17  1  0.27872350  0.18697300  0.91458250  1
  F  F18  1  0.48838850  0.73825100  0.81048750  1
  F  F19  1  0.51161150  0.23825100  0.68951250  1
  F  F20  1  0.72127650  0.68697300  0.58541750  1
  F  F21  1  0.20190850  0.83404700  0.58532150  1
