# generated using pymatgen
data_Na4(WO3)9
_symmetry_space_group_name_H-M   'P 1'
_cell_length_a   18.27934400
_cell_length_b   5.51417400
_cell_length_c   11.69819763
_cell_angle_alpha   90.00000000
_cell_angle_beta   115.23439203
_cell_angle_gamma   90.00000000
_symmetry_Int_Tables_number   1
_chemical_formula_structural   Na4(WO3)9
_chemical_formula_sum   'Na8 W18 O54'
_cell_volume   1066.60308943
_cell_formula_units_Z   2
loop_
 _symmetry_equiv_pos_site_id
 _symmetry_equiv_pos_as_xyz
  1  'x, y, z'
loop_
 _atom_site_type_symbol
 _atom_site_label
 _atom_site_symmetry_multiplicity
 _atom_site_fract_x
 _atom_site_fract_y
 _atom_site_fract_z
 _atom_site_occupancy
  Na  Na0  1  0.00000000  0.50000000  0.83291700  1
  Na  Na1  1  0.83326600  0.00000000  0.38871900  1
  Na  Na2  1  1.00000000  0.50000000  0.16708300  1
  Na  Na3  1  0.16673400  0.00000000  0.61128100  1
  Na  Na4  1  0.50000000  0.00000000  0.83291700  1
  Na  Na5  1  0.33326600  0.50000000  0.38871900  1
  Na  Na6  1  0.50000000  0.00000000  0.16708300  1
  Na  Na7  1  0.66673400  0.50000000  0.61128100  1
  W  W8  1  0.16808000  0.50000000  0.77990800  1
  W  W9  1  0.33224700  0.00000000  0.88937700  1
  W  W10  1  0.00000000  0.00000000  0.00000000  1
  W  W11  1  0.83192000  0.50000000  0.22009200  1
  W  W12  1  0.66775300  0.00000000  0.11062300  1
  W  W13  1  0.99937900  0.00000000  0.33290600  1
  W  W14  1  0.83348100  0.50000000  0.55567800  1
  W  W15  1  0.16651900  0.50000000  0.44432200  1
  W  W16  1  0.00062100  0.00000000  0.66709400  1
  W  W17  1  0.66808000  0.00000000  0.77990800  1
  W  W18  1  0.83224700  0.50000000  0.88937700  1
  W  W19  1  0.50000000  0.50000000  0.00000000  1
  W  W20  1  0.33192000  0.00000000  0.22009200  1
  W  W21  1  0.16775300  0.50000000  0.11062300  1
  W  W22  1  0.49937900  0.50000000  0.33290600  1
  W  W23  1  0.33348100  0.00000000  0.55567800  1
  W  W24  1  0.66651900  0.00000000  0.44432200  1
  W  W25  1  0.50062100  0.50000000  0.66709400  1
  O  O26  1  0.24930800  0.24755900  0.83149400  1
  O  O27  1  0.24930800  0.75244100  0.83149400  1
  O  O28  1  0.99998200  0.00000000  0.83323600  1
  O  O29  1  0.83465800  0.50000000  0.05648200  1
  O  O30  1  0.16534200  0.50000000  0.94351800  1
  O  O31  1  0.41822250  0.24549150  0.94557000  1
  O  O32  1  0.58177750  0.75450850  0.05443000  1
  O  O33  1  0.75069200  0.75244100  0.16850600  1
  O  O34  1  0.58177750  0.24549150  0.05443000  1
  O  O35  1  0.75069200  0.24755900  0.16850600  1
  O  O36  1  0.41822250  0.75450850  0.94557000  1
  O  O37  1  0.00001800  0.00000000  0.16676400  1
  O  O38  1  0.83320100  0.50000000  0.38888300  1
  O  O39  1  0.66680900  0.00000000  0.27797300  1
  O  O40  1  0.25000000  0.75000000  0.50000000  1
  O  O41  1  0.25000000  0.25000000  0.50000000  1
  O  O42  1  0.08319750  0.75018450  0.38881800  1
  O  O43  1  0.91651450  0.74997650  0.27761500  1
  O  O44  1  0.08319750  0.24981550  0.38881800  1
  O  O45  1  0.91651450  0.25002350  0.27761500  1
  O  O46  1  0.00000000  0.00000000  0.50000000  1
  O  O47  1  0.33319100  0.00000000  0.72202700  1
  O  O48  1  0.16679900  0.50000000  0.61111700  1
  O  O49  1  0.91680250  0.75018450  0.61118200  1
  O  O50  1  0.08348550  0.74997650  0.72238500  1
  O  O51  1  0.08348550  0.25002350  0.72238500  1
  O  O52  1  0.91680250  0.24981550  0.61118200  1
  O  O53  1  0.74930800  0.74755900  0.83149400  1
  O  O54  1  0.74930800  0.25244100  0.83149400  1
  O  O55  1  0.49998200  0.50000000  0.83323600  1
  O  O56  1  0.33465800  0.00000000  0.05648200  1
  O  O57  1  0.66534200  0.00000000  0.94351800  1
  O  O58  1  0.91822250  0.74549150  0.94557000  1
  O  O59  1  0.08177750  0.25450850  0.05443000  1
  O  O60  1  0.25069200  0.25244100  0.16850600  1
  O  O61  1  0.08177750  0.74549150  0.05443000  1
  O  O62  1  0.25069200  0.74755900  0.16850600  1
  O  O63  1  0.91822250  0.25450850  0.94557000  1
  O  O64  1  0.50001800  0.50000000  0.16676400  1
  O  O65  1  0.33320100  0.00000000  0.38888300  1
  O  O66  1  0.16680900  0.50000000  0.27797300  1
  O  O67  1  0.75000000  0.25000000  0.50000000  1
  O  O68  1  0.75000000  0.75000000  0.50000000  1
  O  O69  1  0.58319750  0.25018450  0.38881800  1
  O  O70  1  0.41651450  0.24997650  0.27761500  1
  O  O71  1  0.58319750  0.74981550  0.38881800  1
  O  O72  1  0.41651450  0.75002350  0.27761500  1
  O  O73  1  0.50000000  0.50000000  0.50000000  1
  O  O74  1  0.83319100  0.50000000  0.72202700  1
  O  O75  1  0.66679900  0.00000000  0.61111700  1
  O  O76  1  0.41680250  0.25018450  0.61118200  1
  O  O77  1  0.58348550  0.24997650  0.72238500  1
  O  O78  1  0.58348550  0.75002350  0.72238500  1
  O  O79  1  0.41680250  0.74981550  0.61118200  1
