# generated using pymatgen
data_Li2FeF5
_symmetry_space_group_name_H-M   'P 1'
_cell_length_a   3.88292400
_cell_length_b   9.92251000
_cell_length_c   10.08718000
_cell_angle_alpha   90.00000000
_cell_angle_beta   90.00000000
_cell_angle_gamma   90.00000000
_symmetry_Int_Tables_number   1
_chemical_formula_structural   Li2FeF5
_chemical_formula_sum   'Li8 Fe4 F20'
_cell_volume   388.64242394
_cell_formula_units_Z   4
loop_
 _symmetry_equiv_pos_site_id
 _symmetry_equiv_pos_as_xyz
  1  'x, y, z'
loop_
 _atom_site_type_symbol
 _atom_site_label
 _atom_site_symmetry_multiplicity
 _atom_site_fract_x
 _atom_site_fract_y
 _atom_site_fract_z
 _atom_site_occupancy
  Li  Li0  1  0.50000000  0.36640300  0.44320500  1
  Li  Li1  1  0.50000000  0.36640300  0.05679500  1
  Li  Li2  1  0.00000000  0.13359700  0.55679500  1
  Li  Li3  1  0.00000000  0.13359700  0.94320500  1
  Li  Li4  1  0.00000000  0.86640300  0.44320500  1
  Li  Li5  1  0.00000000  0.86640300  0.05679500  1
  Li  Li6  1  0.50000000  0.63359700  0.55679500  1
  Li  Li7  1  0.50000000  0.63359700  0.94320500  1
  Fe  Fe8  1  0.50000000  0.30844600  0.75000000  1
  Fe  Fe9  1  0.00000000  0.19155400  0.25000000  1
  Fe  Fe10  1  0.00000000  0.80844600  0.75000000  1
  Fe  Fe11  1  0.50000000  0.69155400  0.25000000  1
  F  F12  1  0.50000000  0.44902700  0.62021100  1
  F  F13  1  0.50000000  0.44902700  0.87978900  1
  F  F14  1  0.00000000  0.31155800  0.40752000  1
  F  F15  1  0.00000000  0.31155800  0.09248000  1
  F  F16  1  0.50000000  0.23617100  0.25000000  1
  F  F17  1  0.00000000  0.26382900  0.75000000  1
  F  F18  1  0.50000000  0.18844200  0.90752000  1
  F  F19  1  0.50000000  0.18844200  0.59248000  1
  F  F20  1  0.00000000  0.05097300  0.12021100  1
  F  F21  1  0.00000000  0.05097300  0.37978900  1
  F  F22  1  0.00000000  0.94902700  0.62021100  1
  F  F23  1  0.00000000  0.94902700  0.87978900  1
  F  F24  1  0.50000000  0.81155800  0.40752000  1
  F  F25  1  0.50000000  0.81155800  0.09248000  1
  F  F26  1  0.00000000  0.73617100  0.25000000  1
  F  F27  1  0.50000000  0.76382900  0.75000000  1
  F  F28  1  0.00000000  0.68844200  0.90752000  1
  F  F29  1  0.00000000  0.68844200  0.59248000  1
  F  F30  1  0.50000000  0.55097300  0.12021100  1
  F  F31  1  0.50000000  0.55097300  0.37978900  1
