# generated using pymatgen
data_VOF
_symmetry_space_group_name_H-M   'P 1'
_cell_length_a   4.70863763
_cell_length_b   6.22932600
_cell_length_c   9.47682183
_cell_angle_alpha   90.00000000
_cell_angle_beta   90.60701443
_cell_angle_gamma   90.00000000
_symmetry_Int_Tables_number   1
_chemical_formula_structural   VOF
_chemical_formula_sum   'V8 O8 F8'
_cell_volume   277.95511509
_cell_formula_units_Z   8
loop_
 _symmetry_equiv_pos_site_id
 _symmetry_equiv_pos_as_xyz
  1  'x, y, z'
loop_
 _atom_site_type_symbol
 _atom_site_label
 _atom_site_symmetry_multiplicity
 _atom_site_fract_x
 _atom_site_fract_y
 _atom_site_fract_z
 _atom_site_occupancy
  V  V0  1  0.00000000  0.00000000  0.50000000  1
  V  V1  1  0.00000000  0.00000000  0.00000000  1
  V  V2  1  0.00000000  0.50000000  0.00000000  1
  V  V3  1  0.00000000  0.50000000  0.50000000  1
  V  V4  1  0.52998600  0.25075200  0.23514650  1
  V  V5  1  0.47001400  0.75075200  0.26485350  1
  V  V6  1  0.52998600  0.24924800  0.73514650  1
  V  V7  1  0.47001400  0.74924800  0.76485350  1
  O  O8  1  0.18279000  0.75526900  0.41025650  1
  O  O9  1  0.18279000  0.74473100  0.91025650  1
  O  O10  1  0.31152300  0.00049700  0.15668350  1
  O  O11  1  0.31152300  0.49950300  0.65668350  1
  O  O12  1  0.68847700  0.50049700  0.34331650  1
  O  O13  1  0.68847700  0.99950300  0.84331650  1
  O  O14  1  0.81721000  0.25526900  0.08974350  1
  O  O15  1  0.81721000  0.24473100  0.58974350  1
  F  F16  1  0.20991700  0.24675300  0.39618250  1
  F  F17  1  0.20991700  0.25324700  0.89618250  1
  F  F18  1  0.29685200  0.50039700  0.14928250  1
  F  F19  1  0.29685200  0.99960300  0.64928250  1
  F  F20  1  0.70314800  0.00039700  0.35071750  1
  F  F21  1  0.70314800  0.49960300  0.85071750  1
  F  F22  1  0.79008300  0.74675300  0.10381750  1
  F  F23  1  0.79008300  0.75324700  0.60381750  1
