# generated using pymatgen
data_LiV2(CO3)4
_symmetry_space_group_name_H-M   'P 1'
_cell_length_a   9.39272400
_cell_length_b   10.10332800
_cell_length_c   10.32452000
_cell_angle_alpha   90.00000000
_cell_angle_beta   90.00000000
_cell_angle_gamma   90.00000000
_symmetry_Int_Tables_number   1
_chemical_formula_structural   LiV2(CO3)4
_chemical_formula_sum   'Li4 V8 C16 O48'
_cell_volume   979.77393862
_cell_formula_units_Z   4
loop_
 _symmetry_equiv_pos_site_id
 _symmetry_equiv_pos_as_xyz
  1  'x, y, z'
loop_
 _atom_site_type_symbol
 _atom_site_label
 _atom_site_symmetry_multiplicity
 _atom_site_fract_x
 _atom_site_fract_y
 _atom_site_fract_z
 _atom_site_occupancy
  Li  Li0  1  0.50000000  0.25000000  0.81672900  1
  Li  Li1  1  0.00000000  0.25000000  0.18327100  1
  Li  Li2  1  0.00000000  0.75000000  0.31672900  1
  Li  Li3  1  0.50000000  0.75000000  0.68327100  1
  V  V4  1  0.25000000  0.21789200  0.00000000  1
  V  V5  1  0.00000000  0.75000000  0.01867900  1
  V  V6  1  0.25000000  0.78210800  0.50000000  1
  V  V7  1  0.00000000  0.25000000  0.48132100  1
  V  V8  1  0.75000000  0.71789200  0.50000000  1
  V  V9  1  0.50000000  0.25000000  0.51867900  1
  V  V10  1  0.75000000  0.28210800  0.00000000  1
  V  V11  1  0.50000000  0.75000000  0.98132100  1
  C  C12  1  0.47882300  0.45151800  0.96552900  1
  C  C13  1  0.27010250  0.21438950  0.30340350  1
  C  C14  1  0.22989750  0.21438950  0.69659650  1
  C  C15  1  0.97882300  0.04848200  0.03447100  1
  C  C16  1  0.77010250  0.28561050  0.69659650  1
  C  C17  1  0.52117700  0.04848200  0.96552900  1
  C  C18  1  0.02117700  0.45151800  0.03447100  1
  C  C19  1  0.72989750  0.28561050  0.30340350  1
  C  C20  1  0.97882300  0.95151800  0.46552900  1
  C  C21  1  0.77010250  0.71438950  0.80340350  1
  C  C22  1  0.72989750  0.71438950  0.19659650  1
  C  C23  1  0.47882300  0.54848200  0.53447100  1
  C  C24  1  0.27010250  0.78561050  0.19659650  1
  C  C25  1  0.02117700  0.54848200  0.46552900  1
  C  C26  1  0.52117700  0.95151800  0.53447100  1
  C  C27  1  0.22989750  0.78561050  0.80340350  1
  O  O28  1  0.13247750  0.21600050  0.32475850  1
  O  O29  1  0.39094500  0.35341400  0.94537300  1
  O  O30  1  0.67836250  0.71792450  0.30940750  1
  O  O31  1  0.11289800  0.93059800  0.46064000  1
  O  O32  1  0.32163750  0.21792450  0.19059250  1
  O  O33  1  0.14409500  0.20391900  0.59815500  1
  O  O34  1  0.42519700  0.43189800  0.52099300  1
  O  O35  1  0.86752250  0.71600050  0.17524150  1
  O  O36  1  0.11289800  0.06940200  0.03936000  1
  O  O37  1  0.13247750  0.78399950  0.17524150  1
  O  O38  1  0.35590500  0.20391900  0.40184500  1
  O  O39  1  0.38710200  0.06940200  0.96064000  1
  O  O40  1  0.85590500  0.29608100  0.59815500  1
  O  O41  1  0.60905500  0.14658600  0.94537300  1
  O  O42  1  0.14409500  0.79608100  0.90184500  1
  O  O43  1  0.38710200  0.93059800  0.53936000  1
  O  O44  1  0.07480300  0.56810200  0.02099300  1
  O  O45  1  0.07480300  0.43189800  0.47900700  1
  O  O46  1  0.10905500  0.35341400  0.05462700  1
  O  O47  1  0.67836250  0.28207550  0.19059250  1
  O  O48  1  0.86752250  0.28399950  0.32475850  1
  O  O49  1  0.32163750  0.78207550  0.30940750  1
  O  O50  1  0.42519700  0.56810200  0.97900700  1
  O  O51  1  0.39094500  0.64658600  0.55462700  1
  O  O52  1  0.63247750  0.71600050  0.82475850  1
  O  O53  1  0.89094500  0.85341400  0.44537300  1
  O  O54  1  0.17836250  0.21792450  0.80940750  1
  O  O55  1  0.61289800  0.43059800  0.96064000  1
  O  O56  1  0.82163750  0.71792450  0.69059250  1
  O  O57  1  0.64409500  0.70391900  0.09815500  1
  O  O58  1  0.92519700  0.93189800  0.02099300  1
  O  O59  1  0.36752250  0.21600050  0.67524150  1
  O  O60  1  0.61289800  0.56940200  0.53936000  1
  O  O61  1  0.63247750  0.28399950  0.67524150  1
  O  O62  1  0.85590500  0.70391900  0.90184500  1
  O  O63  1  0.88710200  0.56940200  0.46064000  1
  O  O64  1  0.35590500  0.79608100  0.09815500  1
  O  O65  1  0.10905500  0.64658600  0.44537300  1
  O  O66  1  0.64409500  0.29608100  0.40184500  1
  O  O67  1  0.88710200  0.43059800  0.03936000  1
  O  O68  1  0.57480300  0.06810200  0.52099300  1
  O  O69  1  0.57480300  0.93189800  0.97900700  1
  O  O70  1  0.60905500  0.85341400  0.55462700  1
  O  O71  1  0.17836250  0.78207550  0.69059250  1
  O  O72  1  0.36752250  0.78399950  0.82475850  1
  O  O73  1  0.82163750  0.28207550  0.80940750  1
  O  O74  1  0.92519700  0.06810200  0.47900700  1
  O  O75  1  0.89094500  0.14658600  0.05462700  1
