# generated using pymatgen
data_Li4Mn2Nb3Co3O16
_symmetry_space_group_name_H-M   'P 1'
_cell_length_a   10.32653000
_cell_length_b   6.01879200
_cell_length_c   9.84991410
_cell_angle_alpha   90.00000000
_cell_angle_beta   91.94846648
_cell_angle_gamma   90.00000000
_symmetry_Int_Tables_number   1
_chemical_formula_structural   Li4Mn2Nb3Co3O16
_chemical_formula_sum   'Li8 Mn4 Nb6 Co6 O32'
_cell_volume   611.85006824
_cell_formula_units_Z   2
loop_
 _symmetry_equiv_pos_site_id
 _symmetry_equiv_pos_as_xyz
  1  'x, y, z'
loop_
 _atom_site_type_symbol
 _atom_site_label
 _atom_site_symmetry_multiplicity
 _atom_site_fract_x
 _atom_site_fract_y
 _atom_site_fract_z
 _atom_site_occupancy
  Li  Li0  1  0.66057000  0.00000000  0.09802400  1
  Li  Li1  1  0.01887500  0.00000000  0.99821800  1
  Li  Li2  1  0.03275700  0.00000000  0.51142500  1
  Li  Li3  1  0.32851200  0.00000000  0.62056900  1
  Li  Li4  1  0.16057000  0.50000000  0.09802400  1
  Li  Li5  1  0.51887500  0.50000000  0.99821800  1
  Li  Li6  1  0.53275700  0.50000000  0.51142500  1
  Li  Li7  1  0.82851200  0.50000000  0.62056900  1
  Mn  Mn8  1  0.65145700  0.00000000  0.52246300  1
  Mn  Mn9  1  0.33069600  0.00000000  0.99074700  1
  Mn  Mn10  1  0.15145700  0.50000000  0.52246300  1
  Mn  Mn11  1  0.83069600  0.50000000  0.99074700  1
  Nb  Nb12  1  0.82528900  0.00000000  0.79133500  1
  Nb  Nb13  1  0.41098700  0.75140200  0.28775500  1
  Nb  Nb14  1  0.41098700  0.24859800  0.28775500  1
  Nb  Nb15  1  0.32528900  0.50000000  0.79133500  1
  Nb  Nb16  1  0.91098700  0.25140200  0.28775500  1
  Nb  Nb17  1  0.91098700  0.74859800  0.28775500  1
  Co  Co18  1  0.58106000  0.75170100  0.78091500  1
  Co  Co19  1  0.58106000  0.24829900  0.78091500  1
  Co  Co20  1  0.17266100  0.00000000  0.28713000  1
  Co  Co21  1  0.08106000  0.25170100  0.78091500  1
  Co  Co22  1  0.08106000  0.74829900  0.78091500  1
  Co  Co23  1  0.67266100  0.50000000  0.28713000  1
  O  O24  1  0.58256150  0.75146850  0.40159100  1
  O  O25  1  0.50972500  0.00000000  0.67770800  1
  O  O26  1  0.66218800  0.00000000  0.89260400  1
  O  O27  1  0.99767400  0.00000000  0.68734500  1
  O  O28  1  0.99392500  0.00000000  0.18434600  1
  O  O29  1  0.58256150  0.24853150  0.40159100  1
  O  O30  1  0.72966250  0.78094050  0.65725700  1
  O  O31  1  0.72966250  0.21905950  0.65725700  1
  O  O32  1  0.15772600  0.00000000  0.88084900  1
  O  O33  1  0.84542400  0.00000000  0.40168400  1
  O  O34  1  0.26159300  0.76473900  0.16441700  1
  O  O35  1  0.26159300  0.23526100  0.16441700  1
  O  O36  1  0.34816300  0.00000000  0.40722700  1
  O  O37  1  0.42337400  0.73301700  0.89123900  1
  O  O38  1  0.48520300  0.00000000  0.17429200  1
  O  O39  1  0.42337400  0.26698300  0.89123900  1
  O  O40  1  0.08256150  0.25146850  0.40159100  1
  O  O41  1  0.00972500  0.50000000  0.67770800  1
  O  O42  1  0.16218800  0.50000000  0.89260400  1
  O  O43  1  0.49767400  0.50000000  0.68734500  1
  O  O44  1  0.49392500  0.50000000  0.18434600  1
  O  O45  1  0.08256150  0.74853150  0.40159100  1
  O  O46  1  0.22966250  0.28094050  0.65725700  1
  O  O47  1  0.22966250  0.71905950  0.65725700  1
  O  O48  1  0.65772600  0.50000000  0.88084900  1
  O  O49  1  0.34542400  0.50000000  0.40168400  1
  O  O50  1  0.76159300  0.26473900  0.16441700  1
  O  O51  1  0.76159300  0.73526100  0.16441700  1
  O  O52  1  0.84816300  0.50000000  0.40722700  1
  O  O53  1  0.92337400  0.23301700  0.89123900  1
  O  O54  1  0.98520300  0.50000000  0.17429200  1
  O  O55  1  0.92337400  0.76698300  0.89123900  1
