# generated using pymatgen
data_TaS2
_symmetry_space_group_name_H-M   'P 1'
_cell_length_a   3.37291760
_cell_length_b   3.37291760
_cell_length_c   38.39297553
_cell_angle_alpha   90.00000000
_cell_angle_beta   90.00000000
_cell_angle_gamma   120.00000000
_symmetry_Int_Tables_number   1
_chemical_formula_structural   TaS2
_chemical_formula_sum   'Ta6 S12'
_cell_volume   378.26300288
_cell_formula_units_Z   6
loop_
 _symmetry_equiv_pos_site_id
 _symmetry_equiv_pos_as_xyz
  1  'x, y, z'
loop_
 _atom_site_type_symbol
 _atom_site_label
 _atom_site_symmetry_multiplicity
 _atom_site_fract_x
 _atom_site_fract_y
 _atom_site_fract_z
 _atom_site_occupancy
  Ta  Ta0  1  0.66666667  0.33333333  0.25041933  1
  Ta  Ta1  1  0.00000000  0.00000000  0.08291400  1
  Ta  Ta2  1  0.33333333  0.66666667  0.58375267  1
  Ta  Ta3  1  0.66666667  0.33333333  0.41624733  1
  Ta  Ta4  1  0.00000000  0.00000000  0.91708600  1
  Ta  Ta5  1  0.33333333  0.66666667  0.74958067  1
  S  S6  1  0.66666667  0.33333333  0.12298733  1
  S  S7  1  0.00000000  0.00000000  0.21034600  1
  S  S8  1  0.33333333  0.66666667  0.29048467  1
  S  S9  1  0.33333333  0.66666667  0.04284867  1
  S  S10  1  0.33333333  0.66666667  0.45632067  1
  S  S11  1  0.66666667  0.33333333  0.54367933  1
  S  S12  1  0.00000000  0.00000000  0.62381800  1
  S  S13  1  0.00000000  0.00000000  0.37618200  1
  S  S14  1  0.00000000  0.00000000  0.78965400  1
  S  S15  1  0.33333333  0.66666667  0.87701267  1
  S  S16  1  0.66666667  0.33333333  0.95715133  1
  S  S17  1  0.66666667  0.33333333  0.70951533  1
