# generated using pymatgen
data_Li4Mn3FeO8
_symmetry_space_group_name_H-M   'P 1'
_cell_length_a   5.93029017
_cell_length_b   5.93029017
_cell_length_c   14.64616122
_cell_angle_alpha   90.00000000
_cell_angle_beta   90.00000000
_cell_angle_gamma   120.00000000
_symmetry_Int_Tables_number   1
_chemical_formula_structural   Li4Mn3FeO8
_chemical_formula_sum   'Li12 Mn9 Fe3 O24'
_cell_volume   446.07340446
_cell_formula_units_Z   3
loop_
 _symmetry_equiv_pos_site_id
 _symmetry_equiv_pos_as_xyz
  1  'x, y, z'
loop_
 _atom_site_type_symbol
 _atom_site_label
 _atom_site_symmetry_multiplicity
 _atom_site_fract_x
 _atom_site_fract_y
 _atom_site_fract_z
 _atom_site_occupancy
  Li  Li0  1  0.33333333  0.66666667  0.16666667  1
  Li  Li1  1  0.33333333  0.16666667  0.16666667  1
  Li  Li2  1  0.83333333  0.66666667  0.16666667  1
  Li  Li3  1  0.83333333  0.16666667  0.16666667  1
  Li  Li4  1  1.00000000  1.00000000  0.50000000  1
  Li  Li5  1  0.00000000  0.50000000  0.50000000  1
  Li  Li6  1  0.50000000  0.00000000  0.50000000  1
  Li  Li7  1  0.50000000  0.50000000  0.50000000  1
  Li  Li8  1  0.66666667  0.33333333  0.83333333  1
  Li  Li9  1  0.66666667  0.83333333  0.83333333  1
  Li  Li10  1  0.16666667  0.33333333  0.83333333  1
  Li  Li11  1  0.16666667  0.83333333  0.83333333  1
  Mn  Mn12  1  0.00000000  0.50000000  0.00000000  1
  Mn  Mn13  1  0.50000000  0.00000000  0.00000000  1
  Mn  Mn14  1  0.50000000  0.50000000  0.00000000  1
  Mn  Mn15  1  0.66666667  0.83333333  0.33333333  1
  Mn  Mn16  1  0.16666667  0.33333333  0.33333333  1
  Mn  Mn17  1  0.16666667  0.83333333  0.33333333  1
  Mn  Mn18  1  0.33333333  0.16666667  0.66666667  1
  Mn  Mn19  1  0.83333333  0.66666667  0.66666667  1
  Mn  Mn20  1  0.83333333  0.16666667  0.66666667  1
  Fe  Fe21  1  0.00000000  0.00000000  0.00000000  1
  Fe  Fe22  1  0.66666667  0.33333333  0.33333333  1
  Fe  Fe23  1  0.33333333  0.66666667  0.66666667  1
  O  O24  1  0.66666667  0.33333333  0.08857333  1
  O  O25  1  0.66574867  0.83287433  0.07140833  1
  O  O26  1  0.16712567  0.33425133  0.07140833  1
  O  O27  1  0.00000000  0.00000000  0.24476000  1
  O  O28  1  0.16712567  0.83287433  0.07140833  1
  O  O29  1  0.00091800  0.50045900  0.26192500  1
  O  O30  1  0.49954100  0.99908200  0.26192500  1
  O  O31  1  0.49954100  0.50045900  0.26192500  1
  O  O32  1  0.33333333  0.66666667  0.42190667  1
  O  O33  1  0.33241533  0.16620767  0.40474167  1
  O  O34  1  0.83379233  0.66758467  0.40474167  1
  O  O35  1  0.66666667  0.33333333  0.57809333  1
  O  O36  1  0.83379233  0.16620767  0.40474167  1
  O  O37  1  0.66758467  0.83379233  0.59525833  1
  O  O38  1  0.16620767  0.33241533  0.59525833  1
  O  O39  1  0.16620767  0.83379233  0.59525833  1
  O  O40  1  0.00000000  0.00000000  0.75524000  1
  O  O41  1  0.99908200  0.49954100  0.73807500  1
  O  O42  1  0.50045900  0.00091800  0.73807500  1
  O  O43  1  0.33333333  0.66666667  0.91142667  1
  O  O44  1  0.50045900  0.49954100  0.73807500  1
  O  O45  1  0.33425133  0.16712567  0.92859167  1
  O  O46  1  0.83287433  0.66574867  0.92859167  1
  O  O47  1  0.83287433  0.16712567  0.92859167  1
