# generated using pymatgen
data_LiV(PO3)4
_symmetry_space_group_name_H-M   'P 1'
_cell_length_a   17.30560600
_cell_length_b   11.66811800
_cell_length_c   5.07085679
_cell_angle_alpha   90.00000000
_cell_angle_beta   104.86708240
_cell_angle_gamma   90.00000000
_symmetry_Int_Tables_number   1
_chemical_formula_structural   LiV(PO3)4
_chemical_formula_sum   'Li4 V4 P16 O48'
_cell_volume   989.64960107
_cell_formula_units_Z   4
loop_
 _symmetry_equiv_pos_site_id
 _symmetry_equiv_pos_as_xyz
  1  'x, y, z'
loop_
 _atom_site_type_symbol
 _atom_site_label
 _atom_site_symmetry_multiplicity
 _atom_site_fract_x
 _atom_site_fract_y
 _atom_site_fract_z
 _atom_site_occupancy
  Li  Li0  1  0.25000000  0.75000000  0.00000000  1
  Li  Li1  1  0.25000000  0.25000000  0.00000000  1
  Li  Li2  1  0.75000000  0.25000000  0.00000000  1
  Li  Li3  1  0.75000000  0.75000000  0.00000000  1
  V  V4  1  0.35326600  0.00000000  0.31977300  1
  V  V5  1  0.64673400  0.00000000  0.68022700  1
  V  V6  1  0.85326600  0.50000000  0.31977300  1
  V  V7  1  0.14673400  0.50000000  0.68022700  1
  P  P8  1  0.58598950  0.17713650  0.15327900  1
  P  P9  1  0.58598950  0.82286350  0.15327900  1
  P  P10  1  0.81256650  0.88097850  0.56186700  1
  P  P11  1  0.81256650  0.11902150  0.56186700  1
  P  P12  1  0.18743350  0.11902150  0.43813300  1
  P  P13  1  0.18743350  0.88097850  0.43813300  1
  P  P14  1  0.41401050  0.17713650  0.84672100  1
  P  P15  1  0.41401050  0.82286350  0.84672100  1
  P  P16  1  0.08598950  0.67713650  0.15327900  1
  P  P17  1  0.08598950  0.32286350  0.15327900  1
  P  P18  1  0.31256650  0.38097850  0.56186700  1
  P  P19  1  0.31256650  0.61902150  0.56186700  1
  P  P20  1  0.68743350  0.61902150  0.43813300  1
  P  P21  1  0.68743350  0.38097850  0.43813300  1
  P  P22  1  0.91401050  0.67713650  0.84672100  1
  P  P23  1  0.91401050  0.32286350  0.84672100  1
  O  O24  1  0.50000000  0.77267300  0.00000000  1
  O  O25  1  0.50000000  0.22732700  0.00000000  1
  O  O26  1  0.80665200  0.14703300  0.27373300  1
  O  O27  1  0.80665200  0.85296700  0.27373300  1
  O  O28  1  0.37589450  0.11816850  0.04498300  1
  O  O29  1  0.37589450  0.88183150  0.04498300  1
  O  O30  1  0.57839450  0.11228850  0.40092000  1
  O  O31  1  0.57839450  0.88771150  0.40092000  1
  O  O32  1  0.63017400  0.29737600  0.22345300  1
  O  O33  1  0.63017400  0.70262400  0.22345300  1
  O  O34  1  0.86041800  0.00000000  0.64877100  1
  O  O35  1  0.26443250  0.11427450  0.34293300  1
  O  O36  1  0.26443250  0.88572550  0.34293300  1
  O  O37  1  0.73556750  0.11427450  0.65706700  1
  O  O38  1  0.73556750  0.88572550  0.65706700  1
  O  O39  1  0.13958200  0.00000000  0.35122900  1
  O  O40  1  0.36982600  0.70262400  0.77654700  1
  O  O41  1  0.36982600  0.29737600  0.77654700  1
  O  O42  1  0.42160550  0.11228850  0.59908000  1
  O  O43  1  0.42160550  0.88771150  0.59908000  1
  O  O44  1  0.62410550  0.11816850  0.95501700  1
  O  O45  1  0.62410550  0.88183150  0.95501700  1
  O  O46  1  0.19334800  0.14703300  0.72626700  1
  O  O47  1  0.19334800  0.85296700  0.72626700  1
  O  O48  1  0.00000000  0.27267300  0.00000000  1
  O  O49  1  0.00000000  0.72732700  0.00000000  1
  O  O50  1  0.30665200  0.64703300  0.27373300  1
  O  O51  1  0.30665200  0.35296700  0.27373300  1
  O  O52  1  0.87589450  0.61816850  0.04498300  1
  O  O53  1  0.87589450  0.38183150  0.04498300  1
  O  O54  1  0.07839450  0.61228850  0.40092000  1
  O  O55  1  0.07839450  0.38771150  0.40092000  1
  O  O56  1  0.13017400  0.79737600  0.22345300  1
  O  O57  1  0.13017400  0.20262400  0.22345300  1
  O  O58  1  0.36041800  0.50000000  0.64877100  1
  O  O59  1  0.76443250  0.61427450  0.34293300  1
  O  O60  1  0.76443250  0.38572550  0.34293300  1
  O  O61  1  0.23556750  0.61427450  0.65706700  1
  O  O62  1  0.23556750  0.38572550  0.65706700  1
  O  O63  1  0.63958200  0.50000000  0.35122900  1
  O  O64  1  0.86982600  0.20262400  0.77654700  1
  O  O65  1  0.86982600  0.79737600  0.77654700  1
  O  O66  1  0.92160550  0.61228850  0.59908000  1
  O  O67  1  0.92160550  0.38771150  0.59908000  1
  O  O68  1  0.12410550  0.61816850  0.95501700  1
  O  O69  1  0.12410550  0.38183150  0.95501700  1
  O  O70  1  0.69334800  0.64703300  0.72626700  1
  O  O71  1  0.69334800  0.35296700  0.72626700  1
