# generated using pymatgen
data_VO2F
_symmetry_space_group_name_H-M   'P 1'
_cell_length_a   10.76681600
_cell_length_b   3.18848800
_cell_length_c   4.24115842
_cell_angle_alpha   90.00000000
_cell_angle_beta   110.37422695
_cell_angle_gamma   90.00000000
_symmetry_Int_Tables_number   1
_chemical_formula_structural   VO2F
_chemical_formula_sum   'V2 O4 F2'
_cell_volume   136.48956433
_cell_formula_units_Z   2
loop_
 _symmetry_equiv_pos_site_id
 _symmetry_equiv_pos_as_xyz
  1  'x, y, z'
loop_
 _atom_site_type_symbol
 _atom_site_label
 _atom_site_symmetry_multiplicity
 _atom_site_fract_x
 _atom_site_fract_y
 _atom_site_fract_z
 _atom_site_occupancy
  V  V0  1  0.01300100  0.00000000  0.03066100  1
  V  V1  1  0.51300100  0.50000000  0.03066100  1
  O  O2  1  0.01188300  0.00000000  0.41197300  1
  O  O3  1  0.08571600  0.50000000  0.98895000  1
  O  O4  1  0.51188300  0.50000000  0.41197300  1
  O  O5  1  0.58571600  0.00000000  0.98895000  1
  F  F6  1  0.34266300  0.50000000  0.78622500  1
  F  F7  1  0.84266300  0.00000000  0.78622500  1
