# generated using pymatgen
data_Mn2V3Cr(PO4)6
_symmetry_space_group_name_H-M   'P 1'
_cell_length_a   8.61557811
_cell_length_b   8.61557811
_cell_length_c   21.15189553
_cell_angle_alpha   90.00000000
_cell_angle_beta   90.00000000
_cell_angle_gamma   120.00000000
_symmetry_Int_Tables_number   1
_chemical_formula_structural   Mn2V3Cr(PO4)6
_chemical_formula_sum   'Mn6 V9 Cr3 P18 O72'
_cell_volume   1359.71776833
_cell_formula_units_Z   3
loop_
 _symmetry_equiv_pos_site_id
 _symmetry_equiv_pos_as_xyz
  1  'x, y, z'
loop_
 _atom_site_type_symbol
 _atom_site_label
 _atom_site_symmetry_multiplicity
 _atom_site_fract_x
 _atom_site_fract_y
 _atom_site_fract_z
 _atom_site_occupancy
  Mn  Mn0  1  0.00000000  0.00000000  0.00024900  1
  Mn  Mn1  1  0.33333333  0.66666667  0.16714367  1
  Mn  Mn2  1  0.66666667  0.33333333  0.33358233  1
  Mn  Mn3  1  0.00000000  0.00000000  0.50047700  1
  Mn  Mn4  1  0.33333333  0.66666667  0.66691567  1
  Mn  Mn5  1  0.66666667  0.33333333  0.83381033  1
  V  V6  1  0.33333333  0.66666667  0.31092667  1
  V  V7  1  0.66666667  0.33333333  0.18991933  1
  V  V8  1  0.33333333  0.66666667  0.02247167  1
  V  V9  1  0.00000000  0.00000000  0.64426000  1
  V  V10  1  0.33333333  0.66666667  0.52325267  1
  V  V11  1  0.00000000  0.00000000  0.35580500  1
  V  V12  1  0.66666667  0.33333333  0.97759333  1
  V  V13  1  0.00000000  0.00000000  0.85658600  1
  V  V14  1  0.66666667  0.33333333  0.68913833  1
  Cr  Cr15  1  0.00000000  0.00000000  0.14270200  1
  Cr  Cr16  1  0.66666667  0.33333333  0.47603533  1
  Cr  Cr17  1  0.33333333  0.66666667  0.80936867  1
  P  P18  1  0.29026533  0.99975167  0.24950867  1
  P  P19  1  0.00024833  0.29051367  0.24950867  1
  P  P20  1  0.70948633  0.70973467  0.24950867  1
  P  P21  1  0.95831900  0.62519100  0.08338600  1
  P  P22  1  0.66687200  0.04168100  0.08338600  1
  P  P23  1  0.37480900  0.33312800  0.08338600  1
  P  P24  1  0.95693200  0.33308500  0.58284200  1
  P  P25  1  0.66691500  0.62384700  0.58284200  1
  P  P26  1  0.37615300  0.04306800  0.58284200  1
  P  P27  1  0.62498567  0.95852433  0.41671933  1
  P  P28  1  0.33353867  0.37501433  0.41671933  1
  P  P29  1  0.04147567  0.66646133  0.41671933  1
  P  P30  1  0.62359867  0.66641833  0.91617533  1
  P  P31  1  0.33358167  0.95718033  0.91617533  1
  P  P32  1  0.04281967  0.37640133  0.91617533  1
  P  P33  1  0.29165233  0.29185767  0.75005267  1
  P  P34  1  0.00020533  0.70834767  0.75005267  1
  P  P35  1  0.70814233  0.99979467  0.75005267  1
  O  O36  1  0.99626633  0.19077167  0.31056467  1
  O  O37  1  0.80922833  0.80549467  0.31056467  1
  O  O38  1  0.19450533  0.00373367  0.31056467  1
  O  O39  1  0.48149467  0.16872633  0.25426433  1
  O  O40  1  0.19236233  0.99329167  0.18943467  1
  O  O41  1  0.31429867  0.83125533  0.24731533  1
  O  O42  1  0.83127367  0.31276833  0.25426433  1
  O  O43  1  0.16874467  0.48304333  0.24731533  1
  O  O44  1  0.86171700  0.52421300  0.14367200  1
  O  O45  1  0.51695667  0.68570133  0.24731533  1
  O  O46  1  0.97820667  0.81354733  0.07826833  1
  O  O47  1  0.66249600  0.13828300  0.14367200  1
  O  O48  1  0.00670833  0.19907067  0.18943467  1
  O  O49  1  0.68723167  0.51850533  0.25426433  1
  O  O50  1  0.14861567  0.64547833  0.08710933  1
  O  O51  1  0.80092933  0.80763767  0.18943467  1
  O  O52  1  0.49686267  0.85138433  0.08710933  1
  O  O53  1  0.83534067  0.02179333  0.07826833  1
  O  O54  1  0.35452167  0.50313733  0.08710933  1
  O  O55  1  0.47578700  0.33750400  0.14367200  1
  O  O56  1  0.18645267  0.16465933  0.07826833  1
  O  O57  1  0.47455633  0.33308767  0.02311267  1
  O  O58  1  0.85853133  0.52544367  0.02311267  1
  O  O59  1  0.66691233  0.14146867  0.02311267  1
  O  O60  1  0.66293300  0.52410500  0.64389800  1
  O  O61  1  0.47589500  0.13882800  0.64389800  1
  O  O62  1  0.86117200  0.33706700  0.64389800  1
  O  O63  1  0.14816133  0.50205967  0.58759767  1
  O  O64  1  0.85902900  0.32662500  0.52276800  1
  O  O65  1  0.98096533  0.16458867  0.58064867  1
  O  O66  1  0.49794033  0.64610167  0.58759767  1
  O  O67  1  0.83541133  0.81637667  0.58064867  1
  O  O68  1  0.52838367  0.85754633  0.47700533  1
  O  O69  1  0.18362333  0.01903467  0.58064867  1
  O  O70  1  0.64487333  0.14688067  0.41160167  1
  O  O71  1  0.32916267  0.47161633  0.47700533  1
  O  O72  1  0.67337500  0.53240400  0.52276800  1
  O  O73  1  0.35389833  0.85183867  0.58759767  1
  O  O74  1  0.81528233  0.97881167  0.42044267  1
  O  O75  1  0.46759600  0.14097100  0.52276800  1
  O  O76  1  0.16352933  0.18471767  0.42044267  1
  O  O77  1  0.50200733  0.35512667  0.41160167  1
  O  O78  1  0.02118833  0.83647067  0.42044267  1
  O  O79  1  0.14245367  0.67083733  0.47700533  1
  O  O80  1  0.85311933  0.49799267  0.41160167  1
  O  O81  1  0.14122300  0.66642100  0.35644600  1
  O  O82  1  0.52519800  0.85877700  0.35644600  1
  O  O83  1  0.33357900  0.47480200  0.35644600  1
  O  O84  1  0.32959967  0.85743833  0.97723133  1
  O  O85  1  0.14256167  0.47216133  0.97723133  1
  O  O86  1  0.52783867  0.67040033  0.97723133  1
  O  O87  1  0.81482800  0.83539300  0.92093100  1
  O  O88  1  0.52569567  0.65995833  0.85610133  1
  O  O89  1  0.64763200  0.49792200  0.91398200  1
  O  O90  1  0.16460700  0.97943500  0.92093100  1
  O  O91  1  0.50207800  0.14971000  0.91398200  1
  O  O92  1  0.19505033  0.19087967  0.81033867  1
  O  O93  1  0.85029000  0.35236800  0.91398200  1
  O  O94  1  0.31154000  0.48021400  0.74493500  1
  O  O95  1  0.99582933  0.80494967  0.81033867  1
  O  O96  1  0.34004167  0.86573733  0.85610133  1
  O  O97  1  0.02056500  0.18517200  0.92093100  1
  O  O98  1  0.48194900  0.31214500  0.75377600  1
  O  O99  1  0.13426267  0.47430433  0.85610133  1
  O  O100  1  0.83019600  0.51805100  0.75377600  1
  O  O101  1  0.16867400  0.68846000  0.74493500  1
  O  O102  1  0.68785500  0.16980400  0.75377600  1
  O  O103  1  0.80912033  0.00417067  0.81033867  1
  O  O104  1  0.51978600  0.83132600  0.74493500  1
  O  O105  1  0.80788967  0.99975433  0.68977933  1
  O  O106  1  0.19186467  0.19211033  0.68977933  1
  O  O107  1  0.00024567  0.80813533  0.68977933  1
