# generated using pymatgen
data_Li2V3CoO8
_symmetry_space_group_name_H-M   'P 1'
_cell_length_a   12.15445800
_cell_length_b   4.00236400
_cell_length_c   6.52776002
_cell_angle_alpha   90.00000000
_cell_angle_beta   106.78836353
_cell_angle_gamma   90.00000000
_symmetry_Int_Tables_number   1
_chemical_formula_structural   Li2V3CoO8
_chemical_formula_sum   'Li4 V6 Co2 O16'
_cell_volume   304.01841146
_cell_formula_units_Z   2
loop_
 _symmetry_equiv_pos_site_id
 _symmetry_equiv_pos_as_xyz
  1  'x, y, z'
loop_
 _atom_site_type_symbol
 _atom_site_label
 _atom_site_symmetry_multiplicity
 _atom_site_fract_x
 _atom_site_fract_y
 _atom_site_fract_z
 _atom_site_occupancy
  Li  Li0  1  0.06017400  0.00000000  0.34594600  1
  Li  Li1  1  0.43978600  0.50000000  0.63715800  1
  Li  Li2  1  0.56017400  0.50000000  0.34594600  1
  Li  Li3  1  0.93978600  0.00000000  0.63715800  1
  V  V4  1  0.39214000  0.00000000  0.29764900  1
  V  V5  1  0.11129500  0.50000000  0.72217400  1
  V  V6  1  0.29115000  0.00000000  0.71187100  1
  V  V7  1  0.89214000  0.50000000  0.29764900  1
  V  V8  1  0.61129500  0.00000000  0.72217400  1
  V  V9  1  0.79115000  0.50000000  0.71187100  1
  Co  Co10  1  0.21054900  0.50000000  0.30141700  1
  Co  Co11  1  0.71054900  0.00000000  0.30141700  1
  O  O12  1  0.12108100  0.00000000  0.67088600  1
  O  O13  1  0.24143300  0.00000000  0.36317700  1
  O  O14  1  0.34467300  0.00000000  0.98860000  1
  O  O15  1  0.44020000  0.00000000  0.64028700  1
  O  O16  1  0.04795800  0.50000000  0.35275900  1
  O  O17  1  0.14480700  0.50000000  0.99022600  1
  O  O18  1  0.26632200  0.50000000  0.66171100  1
  O  O19  1  0.38843200  0.50000000  0.31614000  1
  O  O20  1  0.62108100  0.50000000  0.67088600  1
  O  O21  1  0.74143300  0.50000000  0.36317700  1
  O  O22  1  0.84467300  0.50000000  0.98860000  1
  O  O23  1  0.94020000  0.50000000  0.64028700  1
  O  O24  1  0.54795800  0.00000000  0.35275900  1
  O  O25  1  0.64480700  0.00000000  0.99022600  1
  O  O26  1  0.76632200  0.00000000  0.66171100  1
  O  O27  1  0.88843200  0.00000000  0.31614000  1
