# generated using pymatgen
data_NaMn2Mo2H3O10
_symmetry_space_group_name_H-M   'P 1'
_cell_length_a   10.29322400
_cell_length_b   7.94144600
_cell_length_c   7.34611368
_cell_angle_alpha   90.00000000
_cell_angle_beta   128.91690885
_cell_angle_gamma   90.00000000
_symmetry_Int_Tables_number   1
_chemical_formula_structural   NaMn2Mo2H3O10
_chemical_formula_sum   'Na2 Mn4 Mo4 H6 O20'
_cell_volume   467.21901874
_cell_formula_units_Z   2
loop_
 _symmetry_equiv_pos_site_id
 _symmetry_equiv_pos_as_xyz
  1  'x, y, z'
loop_
 _atom_site_type_symbol
 _atom_site_label
 _atom_site_symmetry_multiplicity
 _atom_site_fract_x
 _atom_site_fract_y
 _atom_site_fract_z
 _atom_site_occupancy
  Na  Na0  1  0.50000000  0.94380200  0.50000000  1
  Na  Na1  1  0.00000000  0.44380200  0.50000000  1
  Mn  Mn2  1  0.18358400  0.31418000  0.29083600  1
  Mn  Mn3  1  0.31641600  0.81418000  0.70916400  1
  Mn  Mn4  1  0.68358400  0.81418000  0.29083600  1
  Mn  Mn5  1  0.81641600  0.31418000  0.70916400  1
  Mo  Mo6  1  0.48055100  0.49135400  0.19319900  1
  Mo  Mo7  1  0.01944900  0.99135400  0.80680100  1
  Mo  Mo8  1  0.98055100  0.99135400  0.19319900  1
  Mo  Mo9  1  0.51944900  0.49135400  0.80680100  1
  H  H10  1  0.65068050  0.95747150  0.97786300  1
  H  H11  1  0.00000000  0.51828100  0.00000000  1
  H  H12  1  0.84931950  0.45747150  0.02213700  1
  H  H13  1  0.15068050  0.45747150  0.97786300  1
  H  H14  1  0.50000000  0.01828100  0.00000000  1
  H  H15  1  0.34931950  0.95747150  0.02213700  1
  O  O16  1  0.26846550  0.42421550  0.13844900  1
  O  O17  1  0.02879150  0.48987450  0.18736400  1
  O  O18  1  0.33943750  0.54343850  0.84964400  1
  O  O19  1  0.90867550  0.81543150  0.61597500  1
  O  O20  1  0.09132450  0.81543150  0.38402500  1
  O  O21  1  0.45080850  0.69199350  0.64555500  1
  O  O22  1  0.54919150  0.69199350  0.35444500  1
  O  O23  1  0.66056250  0.54343850  0.15035600  1
  O  O24  1  0.47120850  0.98987450  0.81263600  1
  O  O25  1  0.23153450  0.92421550  0.86155100  1
  O  O26  1  0.76846550  0.92421550  0.13844900  1
  O  O27  1  0.52879150  0.98987450  0.18736400  1
  O  O28  1  0.83943750  0.04343850  0.84964400  1
  O  O29  1  0.40867550  0.31543150  0.61597500  1
  O  O30  1  0.59132450  0.31543150  0.38402500  1
  O  O31  1  0.95080850  0.19199350  0.64555500  1
  O  O32  1  0.04919150  0.19199350  0.35444500  1
  O  O33  1  0.16056250  0.04343850  0.15035600  1
  O  O34  1  0.97120850  0.48987450  0.81263600  1
  O  O35  1  0.73153450  0.42421550  0.86155100  1
