# generated using pymatgen
data_Li3Co4CuO8
_symmetry_space_group_name_H-M   'P 1'
_cell_length_a   10.04846000
_cell_length_b   5.68007000
_cell_length_c   5.71220061
_cell_angle_alpha   90.00000000
_cell_angle_beta   122.48711907
_cell_angle_gamma   90.00000000
_symmetry_Int_Tables_number   1
_chemical_formula_structural   Li3Co4CuO8
_chemical_formula_sum   'Li6 Co8 Cu2 O16'
_cell_volume   275.00970756
_cell_formula_units_Z   2
loop_
 _symmetry_equiv_pos_site_id
 _symmetry_equiv_pos_as_xyz
  1  'x, y, z'
loop_
 _atom_site_type_symbol
 _atom_site_label
 _atom_site_symmetry_multiplicity
 _atom_site_fract_x
 _atom_site_fract_y
 _atom_site_fract_z
 _atom_site_occupancy
  Li  Li0  1  0.25000000  0.25000000  0.00000000  1
  Li  Li1  1  0.00000000  0.00000000  0.50000000  1
  Li  Li2  1  0.25000000  0.75000000  0.00000000  1
  Li  Li3  1  0.75000000  0.75000000  0.00000000  1
  Li  Li4  1  0.50000000  0.50000000  0.50000000  1
  Li  Li5  1  0.75000000  0.25000000  0.00000000  1
  Co  Co6  1  0.00000000  0.50000000  0.50000000  1
  Co  Co7  1  0.00000000  0.00000000  0.00000000  1
  Co  Co8  1  0.25000000  0.25000000  0.50000000  1
  Co  Co9  1  0.25000000  0.75000000  0.50000000  1
  Co  Co10  1  0.50000000  0.00000000  0.50000000  1
  Co  Co11  1  0.50000000  0.50000000  0.00000000  1
  Co  Co12  1  0.75000000  0.75000000  0.50000000  1
  Co  Co13  1  0.75000000  0.25000000  0.50000000  1
  Cu  Cu14  1  0.00000000  0.50000000  0.00000000  1
  Cu  Cu15  1  0.50000000  0.00000000  0.00000000  1
  O  O16  1  0.24207700  0.00000000  0.72357600  1
  O  O17  1  0.02130650  0.74344250  0.27253700  1
  O  O18  1  0.02130650  0.25655750  0.27253700  1
  O  O19  1  0.23245500  0.50000000  0.71383000  1
  O  O20  1  0.26754500  0.00000000  0.28617000  1
  O  O21  1  0.47869350  0.24344250  0.72746300  1
  O  O22  1  0.47869350  0.75655750  0.72746300  1
  O  O23  1  0.25792300  0.50000000  0.27642400  1
  O  O24  1  0.74207700  0.50000000  0.72357600  1
  O  O25  1  0.52130650  0.24344250  0.27253700  1
  O  O26  1  0.52130650  0.75655750  0.27253700  1
  O  O27  1  0.73245500  0.00000000  0.71383000  1
  O  O28  1  0.76754500  0.50000000  0.28617000  1
  O  O29  1  0.97869350  0.74344250  0.72746300  1
  O  O30  1  0.97869350  0.25655750  0.72746300  1
  O  O31  1  0.75792300  0.00000000  0.27642400  1
