# generated using pymatgen
data_NiH12SO9
_symmetry_space_group_name_H-M   'P 1'
_cell_length_a   8.75850759
_cell_length_b   8.75850759
_cell_length_c   9.28726720
_cell_angle_alpha   90.00000000
_cell_angle_beta   90.00000000
_cell_angle_gamma   120.00000000
_symmetry_Int_Tables_number   1
_chemical_formula_structural   NiH12SO9
_chemical_formula_sum   'Ni3 H36 S3 O27'
_cell_volume   616.99094980
_cell_formula_units_Z   3
loop_
 _symmetry_equiv_pos_site_id
 _symmetry_equiv_pos_as_xyz
  1  'x, y, z'
loop_
 _atom_site_type_symbol
 _atom_site_label
 _atom_site_symmetry_multiplicity
 _atom_site_fract_x
 _atom_site_fract_y
 _atom_site_fract_z
 _atom_site_occupancy
  Ni  Ni0  1  0.33333333  0.66666667  0.65752117  1
  Ni  Ni1  1  0.00000000  0.00000000  0.99085450  1
  Ni  Ni2  1  0.66666667  0.33333333  0.32418783  1
  H  H3  1  0.81745233  0.70563867  0.15271017  1
  H  H4  1  0.29436133  0.11181367  0.15271017  1
  H  H5  1  0.88818633  0.18254767  0.15271017  1
  H  H6  1  0.17579150  0.69208150  0.41524950  1
  H  H7  1  0.51629000  0.82420850  0.41524950  1
  H  H8  1  0.30791850  0.48371000  0.41524950  1
  H  H9  1  0.19903392  0.89984308  0.15862983  1
  H  H10  1  0.10015692  0.29919083  0.15862983  1
  H  H11  1  0.70080917  0.80096608  0.15862983  1
  H  H12  1  0.98512225  0.58474775  0.21078550  1
  H  H13  1  0.59962550  0.01487775  0.21078550  1
  H  H14  1  0.41525225  0.40037450  0.21078550  1
  H  H15  1  0.48411900  0.03897200  0.48604350  1
  H  H16  1  0.96102800  0.44514700  0.48604350  1
  H  H17  1  0.55485300  0.51588100  0.48604350  1
  H  H18  1  0.84245817  0.02541483  0.74858283  1
  H  H19  1  0.18295667  0.15754183  0.74858283  1
  H  H20  1  0.97458517  0.81704333  0.74858283  1
  H  H21  1  0.86570058  0.23317642  0.49196317  1
  H  H22  1  0.76682358  0.63252417  0.49196317  1
  H  H23  1  0.36747583  0.13429942  0.49196317  1
  H  H24  1  0.65178892  0.91808108  0.54411883  1
  H  H25  1  0.26629217  0.34821108  0.54411883  1
  H  H26  1  0.08191892  0.73370783  0.54411883  1
  H  H27  1  0.15078567  0.37230533  0.81937683  1
  H  H28  1  0.62769467  0.77848033  0.81937683  1
  H  H29  1  0.22151967  0.84921433  0.81937683  1
  H  H30  1  0.50912483  0.35874817  0.08191617  1
  H  H31  1  0.84962333  0.49087517  0.08191617  1
  H  H32  1  0.64125183  0.15037667  0.08191617  1
  H  H33  1  0.53236725  0.56650975  0.82529650  1
  H  H34  1  0.43349025  0.96585750  0.82529650  1
  H  H35  1  0.03414250  0.46763275  0.82529650  1
  H  H36  1  0.31845558  0.25141442  0.87745217  1
  H  H37  1  0.93295883  0.68154442  0.87745217  1
  H  H38  1  0.74858558  0.06704117  0.87745217  1
  S  S39  1  0.33333333  0.66666667  0.16736425  1
  S  S40  1  0.00000000  0.00000000  0.50069758  1
  S  S41  1  0.66666667  0.33333333  0.83403092  1
  O  O42  1  0.20005125  0.00083275  0.10926675  1
  O  O43  1  0.99916725  0.19921850  0.10926675  1
  O  O44  1  0.80078150  0.79994875  0.10926675  1
  O  O45  1  0.85687625  0.52838875  0.18552300  1
  O  O46  1  0.67151250  0.14312375  0.18552300  1
  O  O47  1  0.47161125  0.32848750  0.18552300  1
  O  O48  1  0.20371808  0.71792892  0.23756317  1
  O  O49  1  0.51421083  0.79628192  0.23756317  1
  O  O50  1  0.28207108  0.48578917  0.23756317  1
  O  O51  1  0.86671792  0.33416608  0.44260008  1
  O  O52  1  0.66583392  0.53255183  0.44260008  1
  O  O53  1  0.46744817  0.13328208  0.44260008  1
  O  O54  1  0.52354292  0.86172208  0.51885633  1
  O  O55  1  0.33817917  0.47645708  0.51885633  1
  O  O56  1  0.13827792  0.66182083  0.51885633  1
  O  O57  1  0.87038475  0.05126225  0.57089650  1
  O  O58  1  0.18087750  0.12961525  0.57089650  1
  O  O59  1  0.94873775  0.81912250  0.57089650  1
  O  O60  1  0.53338458  0.66749942  0.77593342  1
  O  O61  1  0.33250058  0.86588517  0.77593342  1
  O  O62  1  0.13411483  0.46661542  0.77593342  1
  O  O63  1  0.19020958  0.19505542  0.85218967  1
  O  O64  1  0.00484583  0.80979042  0.85218967  1
  O  O65  1  0.80494458  0.99515417  0.85218967  1
  O  O66  1  0.53705142  0.38459558  0.90422983  1
  O  O67  1  0.84754417  0.46294858  0.90422983  1
  O  O68  1  0.61540442  0.15245583  0.90422983  1
