# generated using pymatgen
data_Li2Cr3SbO8
_symmetry_space_group_name_H-M   'P 1'
_cell_length_a   5.95945178
_cell_length_b   5.95945178
_cell_length_c   9.66574152
_cell_angle_alpha   90.00000000
_cell_angle_beta   90.00000000
_cell_angle_gamma   120.00000000
_symmetry_Int_Tables_number   1
_chemical_formula_structural   Li2Cr3SbO8
_chemical_formula_sum   'Li4 Cr6 Sb2 O16'
_cell_volume   297.28871878
_cell_formula_units_Z   2
loop_
 _symmetry_equiv_pos_site_id
 _symmetry_equiv_pos_as_xyz
  1  'x, y, z'
loop_
 _atom_site_type_symbol
 _atom_site_label
 _atom_site_symmetry_multiplicity
 _atom_site_fract_x
 _atom_site_fract_y
 _atom_site_fract_z
 _atom_site_occupancy
  Li  Li0  1  0.66666667  0.33333333  0.09602600  1
  Li  Li1  1  0.33333333  0.66666667  0.59602600  1
  Li  Li2  1  0.00000000  0.00000000  0.00927800  1
  Li  Li3  1  0.00000000  0.00000000  0.50927800  1
  Cr  Cr4  1  0.82899300  0.17100700  0.78616500  1
  Cr  Cr5  1  0.17100700  0.82899300  0.28616500  1
  Cr  Cr6  1  0.65798600  0.82899300  0.28616500  1
  Cr  Cr7  1  0.34201400  0.17100700  0.78616500  1
  Cr  Cr8  1  0.82899300  0.65798600  0.78616500  1
  Cr  Cr9  1  0.17100700  0.34201400  0.28616500  1
  Sb  Sb10  1  0.66666667  0.33333333  0.51217600  1
  Sb  Sb11  1  0.33333333  0.66666667  0.01217600  1
  O  O12  1  0.66666667  0.33333333  0.89289000  1
  O  O13  1  0.33333333  0.66666667  0.39289000  1
  O  O14  1  0.00000000  0.00000000  0.69419500  1
  O  O15  1  0.00000000  0.00000000  0.19419500  1
  O  O16  1  0.33106100  0.16553050  0.40486000  1
  O  O17  1  0.83446950  0.66893900  0.40486000  1
  O  O18  1  0.16553050  0.83446950  0.90486000  1
  O  O19  1  0.83446950  0.16553050  0.40486000  1
  O  O20  1  0.16553050  0.33106100  0.90486000  1
  O  O21  1  0.66893900  0.83446950  0.90486000  1
  O  O22  1  0.51877000  0.48123000  0.65693100  1
  O  O23  1  0.51877000  0.03754000  0.65693100  1
  O  O24  1  0.96246000  0.48123000  0.65693100  1
  O  O25  1  0.03754000  0.51877000  0.15693100  1
  O  O26  1  0.48123000  0.96246000  0.15693100  1
  O  O27  1  0.48123000  0.51877000  0.15693100  1
