# generated using pymatgen
data_Li3Mn3(OF)4
_symmetry_space_group_name_H-M   'P 1'
_cell_length_a   10.60517875
_cell_length_b   5.80379245
_cell_length_c   6.07094529
_cell_angle_alpha   90.00000000
_cell_angle_beta   123.38415230
_cell_angle_gamma   90.00000000
_symmetry_Int_Tables_number   1
_chemical_formula_structural   Li3Mn3(OF)4
_chemical_formula_sum   'Li6 Mn6 O8 F8'
_cell_volume   312.01301386
_cell_formula_units_Z   2
loop_
 _symmetry_equiv_pos_site_id
 _symmetry_equiv_pos_as_xyz
  1  'x, y, z'
loop_
 _atom_site_type_symbol
 _atom_site_label
 _atom_site_symmetry_multiplicity
 _atom_site_fract_x
 _atom_site_fract_y
 _atom_site_fract_z
 _atom_site_occupancy
  Li  Li0  1  0.84774500  0.50000000  0.08368000  1
  Li  Li1  1  0.50000000  0.50000000  0.50000000  1
  Li  Li2  1  0.65225500  0.00000000  0.91632000  1
  Li  Li3  1  0.34774500  0.00000000  0.08368000  1
  Li  Li4  1  0.00000000  0.00000000  0.50000000  1
  Li  Li5  1  0.15225500  0.50000000  0.91632000  1
  Mn  Mn6  1  0.50000000  0.50000000  0.00000000  1
  Mn  Mn7  1  0.75000000  0.75000000  0.50000000  1
  Mn  Mn8  1  0.75000000  0.25000000  0.50000000  1
  Mn  Mn9  1  0.00000000  0.00000000  0.00000000  1
  Mn  Mn10  1  0.25000000  0.25000000  0.50000000  1
  Mn  Mn11  1  0.25000000  0.75000000  0.50000000  1
  O  O12  1  0.73934850  0.50000000  0.69459300  1
  O  O13  1  0.71536900  0.50000000  0.24470800  1
  O  O14  1  0.78463100  0.00000000  0.75529200  1
  O  O15  1  0.76065150  0.00000000  0.30540700  1
  O  O16  1  0.23934850  0.00000000  0.69459300  1
  O  O17  1  0.21536900  0.00000000  0.24470800  1
  O  O18  1  0.28463100  0.50000000  0.75529200  1
  O  O19  1  0.26065150  0.50000000  0.30540700  1
  F  F20  1  0.51115100  0.25895400  0.76195900  1
  F  F21  1  0.51115100  0.74104600  0.76195900  1
  F  F22  1  0.48884900  0.25895400  0.23804100  1
  F  F23  1  0.48884900  0.74104600  0.23804100  1
  F  F24  1  0.01115100  0.75895400  0.76195900  1
  F  F25  1  0.01115100  0.24104600  0.76195900  1
  F  F26  1  0.98884900  0.75895400  0.23804100  1
  F  F27  1  0.98884900  0.24104600  0.23804100  1
