# generated using pymatgen
data_Mn2V3Cu(PO4)6
_symmetry_space_group_name_H-M   'P 1'
_cell_length_a   8.64438544
_cell_length_b   8.64438544
_cell_length_c   21.04515694
_cell_angle_alpha   90.00000000
_cell_angle_beta   90.00000000
_cell_angle_gamma   120.00000000
_symmetry_Int_Tables_number   1
_chemical_formula_structural   Mn2V3Cu(PO4)6
_chemical_formula_sum   'Mn6 V9 Cu3 P18 O72'
_cell_volume   1361.91827295
_cell_formula_units_Z   3
loop_
 _symmetry_equiv_pos_site_id
 _symmetry_equiv_pos_as_xyz
  1  'x, y, z'
loop_
 _atom_site_type_symbol
 _atom_site_label
 _atom_site_symmetry_multiplicity
 _atom_site_fract_x
 _atom_site_fract_y
 _atom_site_fract_z
 _atom_site_occupancy
  Mn  Mn0  1  0.00000000  0.00000000  0.00416667  1
  Mn  Mn1  1  0.00000000  0.00000000  0.50065633  1
  Mn  Mn2  1  0.66666667  0.33333333  0.33750000  1
  Mn  Mn3  1  0.66666667  0.33333333  0.83398967  1
  Mn  Mn4  1  0.33333333  0.66666667  0.67083333  1
  Mn  Mn5  1  0.33333333  0.66666667  0.16732300  1
  V  V6  1  0.00000000  0.00000000  0.64494333  1
  V  V7  1  0.00000000  0.00000000  0.85693967  1
  V  V8  1  0.00000000  0.00000000  0.35462300  1
  V  V9  1  0.66666667  0.33333333  0.97827667  1
  V  V10  1  0.66666667  0.33333333  0.19027300  1
  V  V11  1  0.66666667  0.33333333  0.68795633  1
  V  V12  1  0.33333333  0.66666667  0.31161000  1
  V  V13  1  0.33333333  0.66666667  0.52360633  1
  V  V14  1  0.33333333  0.66666667  0.02128967  1
  Cu  Cu15  1  0.00000000  0.00000000  0.14566400  1
  Cu  Cu16  1  0.66666667  0.33333333  0.47899733  1
  Cu  Cu17  1  0.33333333  0.66666667  0.81233067  1
  P  P18  1  0.37468867  0.33394333  0.58229233  1
  P  P19  1  0.95925467  0.62531133  0.58229233  1
  P  P20  1  0.66605667  0.04074533  0.58229233  1
  P  P21  1  0.33216333  0.95723167  0.41643967  1
  P  P22  1  0.04276833  0.37493167  0.41643967  1
  P  P23  1  0.62506833  0.66783667  0.41643967  1
  P  P24  1  0.04135533  0.66727667  0.91562567  1
  P  P25  1  0.62592133  0.95864467  0.91562567  1
  P  P26  1  0.33272333  0.37407867  0.91562567  1
  P  P27  1  0.99883000  0.29056500  0.74977300  1
  P  P28  1  0.70943500  0.70826500  0.74977300  1
  P  P29  1  0.29173500  0.00117000  0.74977300  1
  P  P30  1  0.70802200  0.00061000  0.24895900  1
  P  P31  1  0.29258800  0.29197800  0.24895900  1
  P  P32  1  0.99939000  0.70741200  0.24895900  1
  P  P33  1  0.66549667  0.62389833  0.08310633  1
  P  P34  1  0.37610167  0.04159833  0.08310633  1
  P  P35  1  0.95840167  0.33450333  0.08310633  1
  O  O36  1  0.19471267  0.18900233  0.31035033  1
  O  O37  1  0.99428967  0.80528733  0.31035033  1
  O  O38  1  0.81099767  0.00571033  0.31035033  1
  O  O39  1  0.35267067  0.50304833  0.58809533  1
  O  O40  1  0.45870833  0.32451967  0.52148967  1
  O  O41  1  0.18071200  0.16676200  0.58242500  1
  O  O42  1  0.15037767  0.64732933  0.58809533  1
  O  O43  1  0.98605000  0.81928800  0.58242500  1
  O  O44  1  0.32833067  0.85516633  0.47730933  1
  O  O45  1  0.83323800  0.01395000  0.58242500  1
  O  O46  1  0.49856333  0.14050967  0.40914867  1
  O  O47  1  0.14483367  0.47316433  0.47730933  1
  O  O48  1  0.86581133  0.54129167  0.52148967  1
  O  O49  1  0.49695167  0.84962233  0.58809533  1
  O  O50  1  0.16008633  0.97345767  0.42038567  1
  O  O51  1  0.67548033  0.13418867  0.52148967  1
  O  O52  1  0.02654233  0.18662867  0.42038567  1
  O  O53  1  0.85949033  0.35805367  0.40914867  1
  O  O54  1  0.81337133  0.83991367  0.42038567  1
  O  O55  1  0.52683567  0.67166933  0.47730933  1
  O  O56  1  0.64194633  0.50143667  0.40914867  1
  O  O57  1  0.19248667  0.00852933  0.68972933  1
  O  O58  1  0.99147067  0.18395733  0.68972933  1
  O  O59  1  0.81604267  0.80751333  0.68972933  1
  O  O60  1  0.86137933  0.52233567  0.64368367  1
  O  O61  1  0.66095633  0.13862067  0.64368367  1
  O  O62  1  0.47766433  0.33904367  0.64368367  1
  O  O63  1  0.01933733  0.83638167  0.92142867  1
  O  O64  1  0.12537500  0.65785300  0.85482300  1
  O  O65  1  0.84737867  0.50009533  0.91575833  1
  O  O66  1  0.81704433  0.98066267  0.92142867  1
  O  O67  1  0.65271667  0.15262133  0.91575833  1
  O  O68  1  0.99499733  0.18849967  0.81064267  1
  O  O69  1  0.49990467  0.34728333  0.91575833  1
  O  O70  1  0.16523000  0.47384300  0.74248200  1
  O  O71  1  0.81150033  0.80649767  0.81064267  1
  O  O72  1  0.53247800  0.87462500  0.85482300  1
  O  O73  1  0.16361833  0.18295567  0.92142867  1
  O  O74  1  0.82675300  0.30679100  0.75371900  1
  O  O75  1  0.34214700  0.46752200  0.85482300  1
  O  O76  1  0.69320900  0.51996200  0.75371900  1
  O  O77  1  0.52615700  0.69138700  0.74248200  1
  O  O78  1  0.48003800  0.17324700  0.75371900  1
  O  O79  1  0.19350233  0.00500267  0.81064267  1
  O  O80  1  0.30861300  0.83477000  0.74248200  1
  O  O81  1  0.85915333  0.34186267  0.02306267  1
  O  O82  1  0.65813733  0.51729067  0.02306267  1
  O  O83  1  0.48270933  0.14084667  0.02306267  1
  O  O84  1  0.52804600  0.85566900  0.97701700  1
  O  O85  1  0.32762300  0.47195400  0.97701700  1
  O  O86  1  0.14433100  0.67237700  0.97701700  1
  O  O87  1  0.68600400  0.16971500  0.25476200  1
  O  O88  1  0.79204167  0.99118633  0.18815633  1
  O  O89  1  0.51404533  0.83342867  0.24909167  1
  O  O90  1  0.48371100  0.31399600  0.25476200  1
  O  O91  1  0.31938333  0.48595467  0.24909167  1
  O  O92  1  0.66166400  0.52183300  0.14397600  1
  O  O93  1  0.16657133  0.68061667  0.24909167  1
  O  O94  1  0.83189667  0.80717633  0.07581533  1
  O  O95  1  0.47816700  0.13983100  0.14397600  1
  O  O96  1  0.19914467  0.20795833  0.18815633  1
  O  O97  1  0.83028500  0.51628900  0.25476200  1
  O  O98  1  0.49341967  0.64012433  0.08705233  1
  O  O99  1  0.00881367  0.80085533  0.18815633  1
  O  O100  1  0.35987567  0.85329533  0.08705233  1
  O  O101  1  0.19282367  0.02472033  0.07581533  1
  O  O102  1  0.14670467  0.50658033  0.08705233  1
  O  O103  1  0.86016900  0.33833600  0.14397600  1
  O  O104  1  0.97527967  0.16810333  0.07581533  1
  O  O105  1  0.52582000  0.67519600  0.35639600  1
  O  O106  1  0.32480400  0.85062400  0.35639600  1
  O  O107  1  0.14937600  0.47418000  0.35639600  1
