# generated using pymatgen
data_Fe4O7F
_symmetry_space_group_name_H-M   'P 1'
_cell_length_a   8.80764000
_cell_length_b   6.63323600
_cell_length_c   8.82261098
_cell_angle_alpha   90.00000000
_cell_angle_beta   93.84017898
_cell_angle_gamma   90.00000000
_symmetry_Int_Tables_number   1
_chemical_formula_structural   Fe4O7F
_chemical_formula_sum   'Fe16 O28 F4'
_cell_volume   514.28746324
_cell_formula_units_Z   4
loop_
 _symmetry_equiv_pos_site_id
 _symmetry_equiv_pos_as_xyz
  1  'x, y, z'
loop_
 _atom_site_type_symbol
 _atom_site_label
 _atom_site_symmetry_multiplicity
 _atom_site_fract_x
 _atom_site_fract_y
 _atom_site_fract_z
 _atom_site_occupancy
  Fe  Fe0  1  0.37095600  0.75486100  0.62087500  1
  Fe  Fe1  1  0.62904400  0.75486100  0.87912500  1
  Fe  Fe2  1  0.75000000  0.75000000  0.50000000  1
  Fe  Fe3  1  0.50000000  0.77329300  0.25000000  1
  Fe  Fe4  1  0.50000000  0.22670700  0.75000000  1
  Fe  Fe5  1  0.37095600  0.24513900  0.12087500  1
  Fe  Fe6  1  0.62904400  0.24513900  0.37912500  1
  Fe  Fe7  1  0.75000000  0.25000000  0.00000000  1
  Fe  Fe8  1  0.87095600  0.25486100  0.62087500  1
  Fe  Fe9  1  0.12904400  0.25486100  0.87912500  1
  Fe  Fe10  1  0.25000000  0.25000000  0.50000000  1
  Fe  Fe11  1  0.00000000  0.27329300  0.25000000  1
  Fe  Fe12  1  0.00000000  0.72670700  0.75000000  1
  Fe  Fe13  1  0.87095600  0.74513900  0.12087500  1
  Fe  Fe14  1  0.12904400  0.74513900  0.37912500  1
  Fe  Fe15  1  0.25000000  0.75000000  0.00000000  1
  O  O16  1  0.24559800  0.94567200  0.49694400  1
  O  O17  1  0.50000000  0.92903600  0.75000000  1
  O  O18  1  0.27912900  0.75512700  0.22172800  1
  O  O19  1  0.52812950  0.75389450  0.47078600  1
  O  O20  1  0.27912900  0.24487300  0.72172800  1
  O  O21  1  0.52812950  0.24610550  0.97078600  1
  O  O22  1  0.72087100  0.75512700  0.27827200  1
  O  O23  1  0.47187050  0.75389450  0.02921400  1
  O  O24  1  0.47187050  0.24610550  0.52921400  1
  O  O25  1  0.72087100  0.24487300  0.77827200  1
  O  O26  1  0.50000000  0.07096400  0.25000000  1
  O  O27  1  0.75440200  0.05432800  0.50305600  1
  O  O28  1  0.24559800  0.05432800  0.99694400  1
  O  O29  1  0.75440200  0.94567200  0.00305600  1
  O  O30  1  0.74559800  0.44567200  0.49694400  1
  O  O31  1  0.00000000  0.42903600  0.75000000  1
  O  O32  1  0.77912900  0.25512700  0.22172800  1
  O  O33  1  0.02812950  0.25389450  0.47078600  1
  O  O34  1  0.77912900  0.74487300  0.72172800  1
  O  O35  1  0.02812950  0.74610550  0.97078600  1
  O  O36  1  0.22087100  0.25512700  0.27827200  1
  O  O37  1  0.97187050  0.25389450  0.02921400  1
  O  O38  1  0.97187050  0.74610550  0.52921400  1
  O  O39  1  0.22087100  0.74487300  0.77827200  1
  O  O40  1  0.00000000  0.57096400  0.25000000  1
  O  O41  1  0.25440200  0.55432800  0.50305600  1
  O  O42  1  0.74559800  0.55432800  0.99694400  1
  O  O43  1  0.25440200  0.44567200  0.00305600  1
  F  F44  1  0.50000000  0.54691000  0.75000000  1
  F  F45  1  0.50000000  0.45309000  0.25000000  1
  F  F46  1  0.00000000  0.04691000  0.75000000  1
  F  F47  1  0.00000000  0.95309000  0.25000000  1
