# generated using pymatgen
data_ZrMnO3
_symmetry_space_group_name_H-M   'P 1'
_cell_length_a   5.47212412
_cell_length_b   5.47212412
_cell_length_c   14.63678769
_cell_angle_alpha   90.00000000
_cell_angle_beta   90.00000000
_cell_angle_gamma   120.00000000
_symmetry_Int_Tables_number   1
_chemical_formula_structural   ZrMnO3
_chemical_formula_sum   'Zr6 Mn6 O18'
_cell_volume   379.56685797
_cell_formula_units_Z   6
loop_
 _symmetry_equiv_pos_site_id
 _symmetry_equiv_pos_as_xyz
  1  'x, y, z'
loop_
 _atom_site_type_symbol
 _atom_site_label
 _atom_site_symmetry_multiplicity
 _atom_site_fract_x
 _atom_site_fract_y
 _atom_site_fract_z
 _atom_site_occupancy
  Zr  Zr0  1  0.00000000  0.00000000  0.79616400  1
  Zr  Zr1  1  0.33333333  0.66666667  0.96283067  1
  Zr  Zr2  1  0.66666667  0.33333333  0.12949733  1
  Zr  Zr3  1  0.00000000  0.00000000  0.29616400  1
  Zr  Zr4  1  0.33333333  0.66666667  0.46283067  1
  Zr  Zr5  1  0.66666667  0.33333333  0.62949733  1
  Mn  Mn6  1  0.66666667  0.33333333  0.84544800  1
  Mn  Mn7  1  0.33333333  0.66666667  0.67878133  1
  Mn  Mn8  1  0.33333333  0.66666667  0.17878133  1
  Mn  Mn9  1  0.00000000  0.00000000  0.01211467  1
  Mn  Mn10  1  0.00000000  0.00000000  0.51211467  1
  Mn  Mn11  1  0.66666667  0.33333333  0.34544800  1
  O  O12  1  0.68770567  0.97684433  0.89704533  1
  O  O13  1  0.28913867  0.31229433  0.89704533  1
  O  O14  1  0.35437233  0.04419467  0.73037867  1
  O  O15  1  0.02315567  0.71086133  0.89704533  1
  O  O16  1  0.95580533  0.31017767  0.73037867  1
  O  O17  1  0.68982233  0.64562767  0.73037867  1
  O  O18  1  0.35437233  0.31017767  0.23037867  1
  O  O19  1  0.95580533  0.64562767  0.23037867  1
  O  O20  1  0.02103900  0.37752800  0.06371200  1
  O  O21  1  0.68982233  0.04419467  0.23037867  1
  O  O22  1  0.62247200  0.64351100  0.06371200  1
  O  O23  1  0.35648900  0.97896100  0.06371200  1
  O  O24  1  0.02103900  0.64351100  0.56371200  1
  O  O25  1  0.62247200  0.97896100  0.56371200  1
  O  O26  1  0.68770567  0.71086133  0.39704533  1
  O  O27  1  0.35648900  0.37752800  0.56371200  1
  O  O28  1  0.28913867  0.97684433  0.39704533  1
  O  O29  1  0.02315567  0.31229433  0.39704533  1
