# generated using pymatgen
data_Mn3CuNi2(PO4)6
_symmetry_space_group_name_H-M   'P 1'
_cell_length_a   8.51201881
_cell_length_b   8.51201881
_cell_length_c   20.55991552
_cell_angle_alpha   90.00000000
_cell_angle_beta   90.00000000
_cell_angle_gamma   120.00000000
_symmetry_Int_Tables_number   1
_chemical_formula_structural   Mn3CuNi2(PO4)6
_chemical_formula_sum   'Mn9 Cu3 Ni6 P18 O72'
_cell_volume   1290.08137991
_cell_formula_units_Z   3
loop_
 _symmetry_equiv_pos_site_id
 _symmetry_equiv_pos_as_xyz
  1  'x, y, z'
loop_
 _atom_site_type_symbol
 _atom_site_label
 _atom_site_symmetry_multiplicity
 _atom_site_fract_x
 _atom_site_fract_y
 _atom_site_fract_z
 _atom_site_occupancy
  Mn  Mn0  1  0.33333333  0.66666667  0.80814867  1
  Mn  Mn1  1  0.33333333  0.66666667  0.02470967  1
  Mn  Mn2  1  0.33333333  0.66666667  0.30854567  1
  Mn  Mn3  1  0.00000000  0.00000000  0.14148200  1
  Mn  Mn4  1  0.00000000  0.00000000  0.35804300  1
  Mn  Mn5  1  0.00000000  0.00000000  0.64187900  1
  Mn  Mn6  1  0.66666667  0.33333333  0.47481533  1
  Mn  Mn7  1  0.66666667  0.33333333  0.69137633  1
  Mn  Mn8  1  0.66666667  0.33333333  0.97521233  1
  Cu  Cu9  1  0.33333333  0.66666667  0.52366867  1
  Cu  Cu10  1  0.00000000  0.00000000  0.85700200  1
  Cu  Cu11  1  0.66666667  0.33333333  0.19033533  1
  Ni  Ni12  1  0.33333333  0.66666667  0.66468267  1
  Ni  Ni13  1  0.33333333  0.66666667  0.16647367  1
  Ni  Ni14  1  0.00000000  0.00000000  0.99801600  1
  Ni  Ni15  1  0.00000000  0.00000000  0.49980700  1
  Ni  Ni16  1  0.66666667  0.33333333  0.33134933  1
  Ni  Ni17  1  0.66666667  0.33333333  0.83314033  1
  P  P18  1  0.95785200  0.33275100  0.08327200  1
  P  P19  1  0.37489900  0.04214800  0.08327200  1
  P  P20  1  0.66724900  0.62510100  0.08327200  1
  P  P21  1  0.99939467  0.70956833  0.25048433  1
  P  P22  1  0.29043167  0.28982633  0.25048433  1
  P  P23  1  0.71017367  0.00060533  0.25048433  1
  P  P24  1  0.62451867  0.66608433  0.41660533  1
  P  P25  1  0.04156567  0.37548133  0.41660533  1
  P  P26  1  0.33391567  0.95843433  0.41660533  1
  P  P27  1  0.66606133  0.04290167  0.58381767  1
  P  P28  1  0.95709833  0.62315967  0.58381767  1
  P  P29  1  0.37684033  0.33393867  0.58381767  1
  P  P30  1  0.29118533  0.99941767  0.74993867  1
  P  P31  1  0.70823233  0.70881467  0.74993867  1
  P  P32  1  0.00058233  0.29176767  0.74993867  1
  P  P33  1  0.33272800  0.37623500  0.91715100  1
  P  P34  1  0.62376500  0.95649300  0.91715100  1
  P  P35  1  0.04350700  0.66727200  0.91715100  1
  O  O36  1  0.14378267  0.66907933  0.97918033  1
  O  O37  1  0.33092067  0.47470333  0.97918033  1
  O  O38  1  0.98059667  0.16208933  0.07583033  1
  O  O39  1  0.52529667  0.85621733  0.97918033  1
  O  O40  1  0.87277467  0.34179833  0.14642733  1
  O  O41  1  0.15352433  0.50538367  0.08814067  1
  O  O42  1  0.18149267  0.01940333  0.07583033  1
  O  O43  1  0.35185933  0.84647567  0.08814067  1
  O  O44  1  0.00710800  0.80935500  0.18798600  1
  O  O45  1  0.49461633  0.64814067  0.08814067  1
  O  O46  1  0.83040800  0.51958500  0.25873900  1
  O  O47  1  0.19064500  0.19775300  0.18798600  1
  O  O48  1  0.46902367  0.12722533  0.14642733  1
  O  O49  1  0.83791067  0.81850733  0.07583033  1
  O  O50  1  0.17338033  0.69137667  0.24373067  1
  O  O51  1  0.65820167  0.53097633  0.14642733  1
  O  O52  1  0.30862333  0.48200367  0.24373067  1
  O  O53  1  0.48041500  0.31082300  0.25873900  1
  O  O54  1  0.51799633  0.82661967  0.24373067  1
  O  O55  1  0.80224700  0.99289200  0.18798600  1
  O  O56  1  0.13501333  0.47509967  0.35413367  1
  O  O57  1  0.68917700  0.16959200  0.25873900  1
  O  O58  1  0.34008633  0.86498667  0.35413367  1
  O  O59  1  0.52490033  0.65991367  0.35413367  1
  O  O60  1  0.81044933  0.00241267  0.31251367  1
  O  O61  1  0.99758733  0.80803667  0.31251367  1
  O  O62  1  0.64726333  0.49542267  0.40916367  1
  O  O63  1  0.19196333  0.18955067  0.31251367  1
  O  O64  1  0.53944133  0.67513167  0.47976067  1
  O  O65  1  0.82019100  0.83871700  0.42147400  1
  O  O66  1  0.84815933  0.35273667  0.40916367  1
  O  O67  1  0.01852600  0.17980900  0.42147400  1
  O  O68  1  0.67377467  0.14268833  0.52131933  1
  O  O69  1  0.16128300  0.98147400  0.42147400  1
  O  O70  1  0.49707467  0.85291833  0.59207233  1
  O  O71  1  0.85731167  0.53108633  0.52131933  1
  O  O72  1  0.13569033  0.46055867  0.47976067  1
  O  O73  1  0.50457733  0.15184067  0.40916367  1
  O  O74  1  0.84004700  0.02471000  0.57706400  1
  O  O75  1  0.32486833  0.86430967  0.47976067  1
  O  O76  1  0.97529000  0.81533700  0.57706400  1
  O  O77  1  0.14708167  0.64415633  0.59207233  1
  O  O78  1  0.18466300  0.15995300  0.57706400  1
  O  O79  1  0.46891367  0.32622533  0.52131933  1
  O  O80  1  0.80168000  0.80843300  0.68746700  1
  O  O81  1  0.35584367  0.50292533  0.59207233  1
  O  O82  1  0.00675300  0.19832000  0.68746700  1
  O  O83  1  0.19156700  0.99324700  0.68746700  1
  O  O84  1  0.47711600  0.33574600  0.64584700  1
  O  O85  1  0.66425400  0.14137000  0.64584700  1
  O  O86  1  0.31393000  0.82875600  0.74249700  1
  O  O87  1  0.85863000  0.52288400  0.64584700  1
  O  O88  1  0.20610800  0.00846500  0.81309400  1
  O  O89  1  0.48685767  0.17205033  0.75480733  1
  O  O90  1  0.51482600  0.68607000  0.74249700  1
  O  O91  1  0.68519267  0.51314233  0.75480733  1
  O  O92  1  0.34044133  0.47602167  0.85465267  1
  O  O93  1  0.82794967  0.31480733  0.75480733  1
  O  O94  1  0.16374133  0.18625167  0.92540567  1
  O  O95  1  0.52397833  0.86441967  0.85465267  1
  O  O96  1  0.80235700  0.79389200  0.81309400  1
  O  O97  1  0.17124400  0.48517400  0.74249700  1
  O  O98  1  0.50671367  0.35804333  0.91039733  1
  O  O99  1  0.99153500  0.19764300  0.81309400  1
  O  O100  1  0.64195667  0.14867033  0.91039733  1
  O  O101  1  0.81374833  0.97748967  0.92540567  1
  O  O102  1  0.85132967  0.49328633  0.91039733  1
  O  O103  1  0.13558033  0.65955867  0.85465267  1
  O  O104  1  0.46834667  0.14176633  0.02080033  1
  O  O105  1  0.02251033  0.83625867  0.92540567  1
  O  O106  1  0.67341967  0.53165333  0.02080033  1
  O  O107  1  0.85823367  0.32658033  0.02080033  1
