# generated using pymatgen
data_LiCoPO4
_symmetry_space_group_name_H-M   'P 1'
_cell_length_a   5.13927123
_cell_length_b   6.07681800
_cell_length_c   10.35706955
_cell_angle_alpha   90.00000000
_cell_angle_beta   113.45714331
_cell_angle_gamma   90.00000000
_symmetry_Int_Tables_number   1
_chemical_formula_structural   LiCoPO4
_chemical_formula_sum   'Li4 Co4 P4 O16'
_cell_volume   296.72459829
_cell_formula_units_Z   4
loop_
 _symmetry_equiv_pos_site_id
 _symmetry_equiv_pos_as_xyz
  1  'x, y, z'
loop_
 _atom_site_type_symbol
 _atom_site_label
 _atom_site_symmetry_multiplicity
 _atom_site_fract_x
 _atom_site_fract_y
 _atom_site_fract_z
 _atom_site_occupancy
  Li  Li0  1  0.91281650  0.63909900  0.07164950  1
  Li  Li1  1  0.08718350  0.13909900  0.42835050  1
  Li  Li2  1  0.91281650  0.86090100  0.57164950  1
  Li  Li3  1  0.08718350  0.36090100  0.92835050  1
  Co  Co4  1  0.54568650  0.11187300  0.84173950  1
  Co  Co5  1  0.54568650  0.38812700  0.34173950  1
  Co  Co6  1  0.45431350  0.61187300  0.65826050  1
  Co  Co7  1  0.45431350  0.88812700  0.15826050  1
  P  P8  1  0.10617450  0.64929300  0.36298050  1
  P  P9  1  0.89382550  0.14929300  0.13701950  1
  P  P10  1  0.10617450  0.85070700  0.86298050  1
  P  P11  1  0.89382550  0.35070700  0.63701950  1
  O  O12  1  0.24931450  0.66516100  0.25492850  1
  O  O13  1  0.24931450  0.83483900  0.75492850  1
  O  O14  1  0.75068550  0.16516100  0.24507150  1
  O  O15  1  0.75068550  0.33483900  0.74507150  1
  O  O16  1  0.22151950  0.13867700  0.22126650  1
  O  O17  1  0.22151950  0.36132300  0.72126650  1
  O  O18  1  0.77848050  0.63867700  0.27873350  1
  O  O19  1  0.77848050  0.86132300  0.77873350  1
  O  O20  1  0.22929950  0.43367300  0.44688450  1
  O  O21  1  0.77070050  0.93367300  0.05311550  1
  O  O22  1  0.22929950  0.06632700  0.94688450  1
  O  O23  1  0.77070050  0.56632700  0.55311550  1
  O  O24  1  0.19371750  0.83449700  0.47506150  1
  O  O25  1  0.80628250  0.33449700  0.02493850  1
  O  O26  1  0.19371750  0.66550300  0.97506150  1
  O  O27  1  0.80628250  0.16550300  0.52493850  1
