# generated using pymatgen
data_Li2Fe(Si2O5)3
_symmetry_space_group_name_H-M   'P 1'
_cell_length_a   13.01394400
_cell_length_b   7.26039400
_cell_length_c   14.84122226
_cell_angle_alpha   90.00000000
_cell_angle_beta   101.19857858
_cell_angle_gamma   90.00000000
_symmetry_Int_Tables_number   1
_chemical_formula_structural   Li2Fe(Si2O5)3
_chemical_formula_sum   'Li8 Fe4 Si24 O60'
_cell_volume   1375.59338618
_cell_formula_units_Z   4
loop_
 _symmetry_equiv_pos_site_id
 _symmetry_equiv_pos_as_xyz
  1  'x, y, z'
loop_
 _atom_site_type_symbol
 _atom_site_label
 _atom_site_symmetry_multiplicity
 _atom_site_fract_x
 _atom_site_fract_y
 _atom_site_fract_z
 _atom_site_occupancy
  Li  Li0  1  0.69862200  0.98513700  0.94943100  1
  Li  Li1  1  0.69925900  0.65015500  0.83924800  1
  Li  Li2  1  0.69862200  0.01486300  0.44943100  1
  Li  Li3  1  0.69925900  0.34984500  0.33924800  1
  Li  Li4  1  0.19862200  0.48513700  0.94943100  1
  Li  Li5  1  0.19925900  0.15015500  0.83924800  1
  Li  Li6  1  0.19862200  0.51486300  0.44943100  1
  Li  Li7  1  0.19925900  0.84984500  0.33924800  1
  Fe  Fe8  1  0.52460600  0.75626300  0.89620300  1
  Fe  Fe9  1  0.52460600  0.24373700  0.39620300  1
  Fe  Fe10  1  0.02460600  0.25626300  0.89620300  1
  Fe  Fe11  1  0.02460600  0.74373700  0.39620300  1
  Si  Si12  1  0.59033900  0.04957100  0.74689300  1
  Si  Si13  1  0.55602250  0.52486050  0.56444000  1
  Si  Si14  1  0.59033900  0.95042900  0.24689300  1
  Si  Si15  1  0.55602250  0.47513950  0.06444000  1
  Si  Si16  1  0.77052300  0.39611000  0.55046200  1
  Si  Si17  1  0.81669250  0.18298350  0.74742000  1
  Si  Si18  1  0.77052300  0.60389000  0.05046200  1
  Si  Si19  1  0.81669250  0.81701650  0.24742000  1
  Si  Si20  1  0.99259150  0.91898050  0.75642800  1
  Si  Si21  1  0.99580250  0.44017150  0.54197400  1
  Si  Si22  1  0.99259150  0.08101950  0.25642800  1
  Si  Si23  1  0.99580250  0.55982850  0.04197400  1
  Si  Si24  1  0.09033900  0.54957100  0.74689300  1
  Si  Si25  1  0.05602250  0.02486050  0.56444000  1
  Si  Si26  1  0.09033900  0.45042900  0.24689300  1
  Si  Si27  1  0.05602250  0.97513950  0.06444000  1
  Si  Si28  1  0.27052300  0.89611000  0.55046200  1
  Si  Si29  1  0.31669250  0.68298350  0.74742000  1
  Si  Si30  1  0.27052300  0.10389000  0.05046200  1
  Si  Si31  1  0.31669250  0.31701650  0.24742000  1
  Si  Si32  1  0.49259150  0.41898050  0.75642800  1
  Si  Si33  1  0.49580250  0.94017150  0.54197400  1
  Si  Si34  1  0.49259150  0.58101950  0.25642800  1
  Si  Si35  1  0.49580250  0.05982850  0.04197400  1
  O  O36  1  0.55025600  0.98857100  0.95809200  1
  O  O37  1  0.55901650  0.52021950  0.84838400  1
  O  O38  1  0.54852000  0.48168200  0.67137200  1
  O  O39  1  0.60143500  0.86166700  0.80736100  1
  O  O40  1  0.57244050  0.00002050  0.63830900  1
  O  O41  1  0.55025600  0.01142900  0.45809200  1
  O  O42  1  0.73063550  0.73484650  0.96307900  1
  O  O43  1  0.55901650  0.47978050  0.34838400  1
  O  O44  1  0.70388650  0.15200050  0.77933500  1
  O  O45  1  0.54852000  0.51831800  0.17137200  1
  O  O46  1  0.60143500  0.13833300  0.30736100  1
  O  O47  1  0.68001050  0.55161450  0.55992000  1
  O  O48  1  0.57244050  0.99997950  0.13830900  1
  O  O49  1  0.73063550  0.26515350  0.46307900  1
  O  O50  1  0.79724400  0.28167800  0.64718000  1
  O  O51  1  0.70388650  0.84799950  0.27933500  1
  O  O52  1  0.88873800  0.30181100  0.82636000  1
  O  O53  1  0.86878450  0.97664550  0.73798400  1
  O  O54  1  0.68001050  0.44838550  0.05992000  1
  O  O55  1  0.87629400  0.51162600  0.53879500  1
  O  O56  1  0.79724400  0.71832200  0.14718000  1
  O  O57  1  0.50070900  0.19435200  0.76723500  1
  O  O58  1  0.88873800  0.69818900  0.32636000  1
  O  O59  1  0.86878450  0.02335450  0.23798400  1
  O  O60  1  0.99312050  0.21538250  0.53321400  1
  O  O61  1  0.99891150  0.85290750  0.50379500  1
  O  O62  1  0.87629400  0.48837400  0.03879500  1
  O  O63  1  0.50070900  0.80564800  0.26723500  1
  O  O64  1  0.99312050  0.78461750  0.03321400  1
  O  O65  1  0.99891150  0.14709250  0.00379500  1
  O  O66  1  0.05025600  0.48857100  0.95809200  1
  O  O67  1  0.05901650  0.02021950  0.84838400  1
  O  O68  1  0.04852000  0.98168200  0.67137200  1
  O  O69  1  0.10143500  0.36166700  0.80736100  1
  O  O70  1  0.07244050  0.50002050  0.63830900  1
  O  O71  1  0.05025600  0.51142900  0.45809200  1
  O  O72  1  0.23063550  0.23484650  0.96307900  1
  O  O73  1  0.05901650  0.97978050  0.34838400  1
  O  O74  1  0.20388650  0.65200050  0.77933500  1
  O  O75  1  0.04852000  0.01831800  0.17137200  1
  O  O76  1  0.10143500  0.63833300  0.30736100  1
  O  O77  1  0.18001050  0.05161450  0.55992000  1
  O  O78  1  0.07244050  0.49997950  0.13830900  1
  O  O79  1  0.23063550  0.76515350  0.46307900  1
  O  O80  1  0.29724400  0.78167800  0.64718000  1
  O  O81  1  0.20388650  0.34799950  0.27933500  1
  O  O82  1  0.38873800  0.80181100  0.82636000  1
  O  O83  1  0.36878450  0.47664550  0.73798400  1
  O  O84  1  0.18001050  0.94838550  0.05992000  1
  O  O85  1  0.37629400  0.01162600  0.53879500  1
  O  O86  1  0.29724400  0.21832200  0.14718000  1
  O  O87  1  0.00070900  0.69435200  0.76723500  1
  O  O88  1  0.38873800  0.19818900  0.32636000  1
  O  O89  1  0.36878450  0.52335450  0.23798400  1
  O  O90  1  0.49312050  0.71538250  0.53321400  1
  O  O91  1  0.49891150  0.35290750  0.50379500  1
  O  O92  1  0.37629400  0.98837400  0.03879500  1
  O  O93  1  0.00070900  0.30564800  0.26723500  1
  O  O94  1  0.49312050  0.28461750  0.03321400  1
  O  O95  1  0.49891150  0.64709250  0.00379500  1
