# generated using pymatgen
data_Li3Mn2FeO6
_symmetry_space_group_name_H-M   'P 1'
_cell_length_a   12.56603000
_cell_length_b   3.00524000
_cell_length_c   6.00202601
_cell_angle_alpha   90.00000000
_cell_angle_beta   104.64290691
_cell_angle_gamma   90.00000000
_symmetry_Int_Tables_number   1
_chemical_formula_structural   Li3Mn2FeO6
_chemical_formula_sum   'Li6 Mn4 Fe2 O12'
_cell_volume   219.29823521
_cell_formula_units_Z   2
loop_
 _symmetry_equiv_pos_site_id
 _symmetry_equiv_pos_as_xyz
  1  'x, y, z'
loop_
 _atom_site_type_symbol
 _atom_site_label
 _atom_site_symmetry_multiplicity
 _atom_site_fract_x
 _atom_site_fract_y
 _atom_site_fract_z
 _atom_site_occupancy
  Li  Li0  1  0.00000000  0.00000000  0.00000000  1
  Li  Li1  1  0.16687700  0.50000000  0.33567800  1
  Li  Li2  1  0.33312300  0.00000000  0.66432200  1
  Li  Li3  1  0.50000000  0.50000000  0.00000000  1
  Li  Li4  1  0.66687700  0.00000000  0.33567800  1
  Li  Li5  1  0.83312300  0.50000000  0.66432200  1
  Mn  Mn6  1  0.16739000  0.50000000  0.82641300  1
  Mn  Mn7  1  0.33261000  0.00000000  0.17358700  1
  Mn  Mn8  1  0.66739000  0.00000000  0.82641300  1
  Mn  Mn9  1  0.83261000  0.50000000  0.17358700  1
  Fe  Fe10  1  0.00000000  0.00000000  0.50000000  1
  Fe  Fe11  1  0.50000000  0.50000000  0.50000000  1
  O  O12  1  0.15884800  0.00000000  0.58311900  1
  O  O13  1  0.32640600  0.50000000  0.91928900  1
  O  O14  1  0.34115200  0.50000000  0.41688100  1
  O  O15  1  0.49227800  0.00000000  0.27025700  1
  O  O16  1  0.00772200  0.50000000  0.72974300  1
  O  O17  1  0.17359400  0.00000000  0.08071100  1
  O  O18  1  0.65884800  0.50000000  0.58311900  1
  O  O19  1  0.82640600  0.00000000  0.91928900  1
  O  O20  1  0.84115200  0.00000000  0.41688100  1
  O  O21  1  0.99227800  0.50000000  0.27025700  1
  O  O22  1  0.50772200  0.00000000  0.72974300  1
  O  O23  1  0.67359400  0.50000000  0.08071100  1
