# generated using pymatgen
data_Li4V3P8O29
_symmetry_space_group_name_H-M   'P 1'
_cell_length_a   16.94215200
_cell_length_b   9.80295400
_cell_length_c   14.07521796
_cell_angle_alpha   90.00000000
_cell_angle_beta   90.13822432
_cell_angle_gamma   90.00000000
_symmetry_Int_Tables_number   1
_chemical_formula_structural   Li4V3P8O29
_chemical_formula_sum   'Li16 V12 P32 O116'
_cell_volume   2337.64954601
_cell_formula_units_Z   4
loop_
 _symmetry_equiv_pos_site_id
 _symmetry_equiv_pos_as_xyz
  1  'x, y, z'
loop_
 _atom_site_type_symbol
 _atom_site_label
 _atom_site_symmetry_multiplicity
 _atom_site_fract_x
 _atom_site_fract_y
 _atom_site_fract_z
 _atom_site_occupancy
  Li  Li0  1  0.61410350  0.29419750  0.56072800  1
  Li  Li1  1  0.45140000  0.22791500  0.44196300  1
  Li  Li2  1  0.61410350  0.70580250  0.06072800  1
  Li  Li3  1  0.38732200  0.29867300  0.94273300  1
  Li  Li4  1  0.45140000  0.77208500  0.94196300  1
  Li  Li5  1  0.38732200  0.70132700  0.44273300  1
  Li  Li6  1  0.15821600  0.07246900  0.44025400  1
  Li  Li7  1  0.15821600  0.92753100  0.94025400  1
  Li  Li8  1  0.11410350  0.79419750  0.56072800  1
  Li  Li9  1  0.95140000  0.72791500  0.44196300  1
  Li  Li10  1  0.11410350  0.20580250  0.06072800  1
  Li  Li11  1  0.88732200  0.79867300  0.94273300  1
  Li  Li12  1  0.95140000  0.27208500  0.94196300  1
  Li  Li13  1  0.88732200  0.20132700  0.44273300  1
  Li  Li14  1  0.65821600  0.57246900  0.44025400  1
  Li  Li15  1  0.65821600  0.42753100  0.94025400  1
  V  V16  1  0.21673650  0.78348850  0.75248500  1
  V  V17  1  0.78418800  0.78541100  0.74708700  1
  V  V18  1  0.50070050  0.06765950  0.24694300  1
  V  V19  1  0.50070050  0.93234050  0.74694300  1
  V  V20  1  0.21673650  0.21651150  0.25248500  1
  V  V21  1  0.78418800  0.21458900  0.24708700  1
  V  V22  1  0.71673650  0.28348850  0.75248500  1
  V  V23  1  0.28418800  0.28541100  0.74708700  1
  V  V24  1  0.00070050  0.56765950  0.24694300  1
  V  V25  1  0.00070050  0.43234050  0.74694300  1
  V  V26  1  0.71673650  0.71651150  0.25248500  1
  V  V27  1  0.28418800  0.71458900  0.24708700  1
  P  P28  1  0.84167700  0.07124700  0.84050500  1
  P  P29  1  0.84167700  0.92875300  0.34050500  1
  P  P30  1  0.61584050  0.29636550  0.34050700  1
  P  P31  1  0.66640000  0.00093500  0.62857800  1
  P  P32  1  0.66640000  0.99906500  0.12857800  1
  P  P33  1  0.54272600  0.22477600  0.84238200  1
  P  P34  1  0.45674750  0.22538250  0.65864500  1
  P  P35  1  0.61584050  0.70363450  0.84050700  1
  P  P36  1  0.38344350  0.29682450  0.15801800  1
  P  P37  1  0.54272600  0.77522400  0.34238200  1
  P  P38  1  0.45674750  0.77461750  0.15864500  1
  P  P39  1  0.33394350  0.00245150  0.87119700  1
  P  P40  1  0.33394350  0.99754850  0.37119700  1
  P  P41  1  0.38344350  0.70317550  0.65801800  1
  P  P42  1  0.15922300  0.07159500  0.65726500  1
  P  P43  1  0.15922300  0.92840500  0.15726500  1
  P  P44  1  0.34167700  0.57124700  0.84050500  1
  P  P45  1  0.34167700  0.42875300  0.34050500  1
  P  P46  1  0.11584050  0.79636550  0.34050700  1
  P  P47  1  0.16640000  0.50093500  0.62857800  1
  P  P48  1  0.16640000  0.49906500  0.12857800  1
  P  P49  1  0.04272600  0.72477600  0.84238200  1
  P  P50  1  0.95674750  0.72538250  0.65864500  1
  P  P51  1  0.11584050  0.20363450  0.84050700  1
  P  P52  1  0.88344350  0.79682450  0.15801800  1
  P  P53  1  0.04272600  0.27522400  0.34238200  1
  P  P54  1  0.95674750  0.27461750  0.15864500  1
  P  P55  1  0.83394350  0.50245150  0.87119700  1
  P  P56  1  0.83394350  0.49754850  0.37119700  1
  P  P57  1  0.88344350  0.20317550  0.65801800  1
  P  P58  1  0.65922300  0.57159500  0.65726500  1
  P  P59  1  0.65922300  0.42840500  0.15726500  1
  O  O60  1  0.38186950  0.63042550  0.56590700  1
  O  O61  1  0.83157700  0.08764800  0.33792700  1
  O  O62  1  0.89279900  0.90119800  0.24491800  1
  O  O63  1  0.38186950  0.36957450  0.06590700  1
  O  O64  1  0.76062750  0.13915450  0.82461900  1
  O  O65  1  0.83157700  0.91235200  0.83792700  1
  O  O66  1  0.73982250  0.07550150  0.17506800  1
  O  O67  1  0.69145650  0.21187750  0.32304400  1
  O  O68  1  0.12499750  0.87912650  0.06645000  1
  O  O69  1  0.62663500  0.28782200  0.84146200  1
  O  O70  1  0.73982250  0.92449850  0.67506800  1
  O  O71  1  0.66426200  0.15023600  0.66720500  1
  O  O72  1  0.76062750  0.86084550  0.32461900  1
  O  O73  1  0.66484250  0.99444950  0.52347100  1
  O  O74  1  0.66484250  0.00555050  0.02347100  1
  O  O75  1  0.69145650  0.78812250  0.82304400  1
  O  O76  1  0.59186450  0.07445850  0.17556700  1
  O  O77  1  0.66426200  0.84976400  0.16720500  1
  O  O78  1  0.54170200  0.20335400  0.34016100  1
  O  O79  1  0.50356750  0.29047250  0.74609700  1
  O  O80  1  0.49524450  0.26141550  0.92661900  1
  O  O81  1  0.49946950  0.25538550  0.56798700  1
  O  O82  1  0.54747300  0.06950600  0.82199400  1
  O  O83  1  0.59186450  0.92554150  0.67556700  1
  O  O84  1  0.62663500  0.71217800  0.34146200  1
  O  O85  1  0.45674100  0.20100800  0.17052000  1
  O  O86  1  0.54747300  0.93049400  0.32199400  1
  O  O87  1  0.38612400  0.38132900  0.42525600  1
  O  O88  1  0.12499750  0.12087350  0.56645000  1
  O  O89  1  0.45183100  0.06872300  0.67620300  1
  O  O90  1  0.54170200  0.79664600  0.84016100  1
  O  O91  1  0.60477350  0.60593950  0.74908600  1
  O  O92  1  0.37276200  0.28604000  0.66425000  1
  O  O93  1  0.40800900  0.07543100  0.32893300  1
  O  O94  1  0.45183100  0.93127700  0.17620300  1
  O  O95  1  0.49946950  0.74461450  0.06798700  1
  O  O96  1  0.49524450  0.73858450  0.42661900  1
  O  O97  1  0.50356750  0.70952750  0.24609700  1
  O  O98  1  0.45674100  0.79899200  0.67052000  1
  O  O99  1  0.33494400  0.15321200  0.82846200  1
  O  O100  1  0.30844800  0.21079000  0.17825400  1
  O  O101  1  0.40800900  0.92456900  0.82893300  1
  O  O102  1  0.33738150  0.99415250  0.47727200  1
  O  O103  1  0.33738150  0.00584750  0.97727200  1
  O  O104  1  0.24003750  0.14215050  0.67957000  1
  O  O105  1  0.33494400  0.84678800  0.32846200  1
  O  O106  1  0.25679850  0.06769450  0.33323500  1
  O  O107  1  0.37276200  0.71396000  0.16425000  1
  O  O108  1  0.89279900  0.09880200  0.74491800  1
  O  O109  1  0.38612400  0.61867100  0.92525600  1
  O  O110  1  0.30844800  0.78921000  0.67825400  1
  O  O111  1  0.25679850  0.93230550  0.83323500  1
  O  O112  1  0.16807300  0.08496700  0.16092300  1
  O  O113  1  0.24003750  0.85784950  0.17957000  1
  O  O114  1  0.62106000  0.62127100  0.93043500  1
  O  O115  1  0.16807300  0.91503300  0.66092300  1
  O  O116  1  0.62106000  0.37872900  0.43043500  1
  O  O117  1  0.60477350  0.39406050  0.24908600  1
  O  O118  1  0.88186950  0.13042550  0.56590700  1
  O  O119  1  0.33157700  0.58764800  0.33792700  1
  O  O120  1  0.39279900  0.40119800  0.24491800  1
  O  O121  1  0.88186950  0.86957450  0.06590700  1
  O  O122  1  0.26062750  0.63915450  0.82461900  1
  O  O123  1  0.33157700  0.41235200  0.83792700  1
  O  O124  1  0.23982250  0.57550150  0.17506800  1
  O  O125  1  0.19145650  0.71187750  0.32304400  1
  O  O126  1  0.62499750  0.37912650  0.06645000  1
  O  O127  1  0.12663500  0.78782200  0.84146200  1
  O  O128  1  0.23982250  0.42449850  0.67506800  1
  O  O129  1  0.16426200  0.65023600  0.66720500  1
  O  O130  1  0.26062750  0.36084550  0.32461900  1
  O  O131  1  0.16484250  0.49444950  0.52347100  1
  O  O132  1  0.16484250  0.50555050  0.02347100  1
  O  O133  1  0.19145650  0.28812250  0.82304400  1
  O  O134  1  0.09186450  0.57445850  0.17556700  1
  O  O135  1  0.16426200  0.34976400  0.16720500  1
  O  O136  1  0.04170200  0.70335400  0.34016100  1
  O  O137  1  0.00356750  0.79047250  0.74609700  1
  O  O138  1  0.99524450  0.76141550  0.92661900  1
  O  O139  1  0.99946950  0.75538550  0.56798700  1
  O  O140  1  0.04747300  0.56950600  0.82199400  1
  O  O141  1  0.09186450  0.42554150  0.67556700  1
  O  O142  1  0.12663500  0.21217800  0.34146200  1
  O  O143  1  0.95674100  0.70100800  0.17052000  1
  O  O144  1  0.04747300  0.43049400  0.32199400  1
  O  O145  1  0.88612400  0.88132900  0.42525600  1
  O  O146  1  0.62499750  0.62087350  0.56645000  1
  O  O147  1  0.95183100  0.56872300  0.67620300  1
  O  O148  1  0.04170200  0.29664600  0.84016100  1
  O  O149  1  0.10477350  0.10593950  0.74908600  1
  O  O150  1  0.87276200  0.78604000  0.66425000  1
  O  O151  1  0.90800900  0.57543100  0.32893300  1
  O  O152  1  0.95183100  0.43127700  0.17620300  1
  O  O153  1  0.99946950  0.24461450  0.06798700  1
  O  O154  1  0.99524450  0.23858450  0.42661900  1
  O  O155  1  0.00356750  0.20952750  0.24609700  1
  O  O156  1  0.95674100  0.29899200  0.67052000  1
  O  O157  1  0.83494400  0.65321200  0.82846200  1
  O  O158  1  0.80844800  0.71079000  0.17825400  1
  O  O159  1  0.90800900  0.42456900  0.82893300  1
  O  O160  1  0.83738150  0.49415250  0.47727200  1
  O  O161  1  0.83738150  0.50584750  0.97727200  1
  O  O162  1  0.74003750  0.64215050  0.67957000  1
  O  O163  1  0.83494400  0.34678800  0.32846200  1
  O  O164  1  0.75679850  0.56769450  0.33323500  1
  O  O165  1  0.87276200  0.21396000  0.16425000  1
  O  O166  1  0.39279900  0.59880200  0.74491800  1
  O  O167  1  0.88612400  0.11867100  0.92525600  1
  O  O168  1  0.80844800  0.28921000  0.67825400  1
  O  O169  1  0.75679850  0.43230550  0.83323500  1
  O  O170  1  0.66807300  0.58496700  0.16092300  1
  O  O171  1  0.74003750  0.35784950  0.17957000  1
  O  O172  1  0.12106000  0.12127100  0.93043500  1
  O  O173  1  0.66807300  0.41503300  0.66092300  1
  O  O174  1  0.12106000  0.87872900  0.43043500  1
  O  O175  1  0.10477350  0.89406050  0.24908600  1
