# generated using pymatgen
data_Sr3Li2Nb4O13
_symmetry_space_group_name_H-M   'P 1'
_cell_length_a   4.05214400
_cell_length_b   4.05214400
_cell_length_c   34.79808400
_cell_angle_alpha   90.00000000
_cell_angle_beta   90.00000000
_cell_angle_gamma   90.00000000
_symmetry_Int_Tables_number   1
_chemical_formula_structural   Sr3Li2Nb4O13
_chemical_formula_sum   'Sr6 Li4 Nb8 O26'
_cell_volume   571.38005021
_cell_formula_units_Z   2
loop_
 _symmetry_equiv_pos_site_id
 _symmetry_equiv_pos_as_xyz
  1  'x, y, z'
loop_
 _atom_site_type_symbol
 _atom_site_label
 _atom_site_symmetry_multiplicity
 _atom_site_fract_x
 _atom_site_fract_y
 _atom_site_fract_z
 _atom_site_occupancy
  Sr  Sr0  1  0.00000000  0.00000000  0.37705400  1
  Sr  Sr1  1  0.50000000  0.50000000  0.00000000  1
  Sr  Sr2  1  0.50000000  0.50000000  0.12294600  1
  Sr  Sr3  1  0.50000000  0.50000000  0.87705400  1
  Sr  Sr4  1  0.00000000  0.00000000  0.50000000  1
  Sr  Sr5  1  0.00000000  0.00000000  0.62294600  1
  Li  Li6  1  0.00000000  0.50000000  0.25000000  1
  Li  Li7  1  0.50000000  0.00000000  0.25000000  1
  Li  Li8  1  0.50000000  0.00000000  0.75000000  1
  Li  Li9  1  0.00000000  0.50000000  0.75000000  1
  Nb  Nb10  1  0.00000000  0.00000000  0.05907900  1
  Nb  Nb11  1  0.00000000  0.00000000  0.17930400  1
  Nb  Nb12  1  0.50000000  0.50000000  0.32069600  1
  Nb  Nb13  1  0.50000000  0.50000000  0.44092100  1
  Nb  Nb14  1  0.50000000  0.50000000  0.55907900  1
  Nb  Nb15  1  0.50000000  0.50000000  0.67930400  1
  Nb  Nb16  1  0.00000000  0.00000000  0.82069600  1
  Nb  Nb17  1  0.00000000  0.00000000  0.94092100  1
  O  O18  1  0.00000000  0.00000000  0.00000000  1
  O  O19  1  0.00000000  0.00000000  0.11710200  1
  O  O20  1  0.00000000  0.50000000  0.05791500  1
  O  O21  1  0.00000000  0.00000000  0.23385200  1
  O  O22  1  0.00000000  0.50000000  0.17269600  1
  O  O23  1  0.00000000  0.50000000  0.44208500  1
  O  O24  1  0.00000000  0.50000000  0.32730400  1
  O  O25  1  0.50000000  0.50000000  0.26614800  1
  O  O26  1  0.50000000  0.50000000  0.38289800  1
  O  O27  1  0.50000000  0.00000000  0.17269600  1
  O  O28  1  0.50000000  0.00000000  0.32730400  1
  O  O29  1  0.50000000  0.00000000  0.44208500  1
  O  O30  1  0.50000000  0.00000000  0.05791500  1
  O  O31  1  0.50000000  0.50000000  0.50000000  1
  O  O32  1  0.50000000  0.50000000  0.61710200  1
  O  O33  1  0.50000000  0.00000000  0.55791500  1
  O  O34  1  0.50000000  0.50000000  0.73385200  1
  O  O35  1  0.50000000  0.00000000  0.67269600  1
  O  O36  1  0.50000000  0.00000000  0.94208500  1
  O  O37  1  0.50000000  0.00000000  0.82730400  1
  O  O38  1  0.00000000  0.00000000  0.76614800  1
  O  O39  1  0.00000000  0.00000000  0.88289800  1
  O  O40  1  0.00000000  0.50000000  0.67269600  1
  O  O41  1  0.00000000  0.50000000  0.82730400  1
  O  O42  1  0.00000000  0.50000000  0.94208500  1
  O  O43  1  0.00000000  0.50000000  0.55791500  1
