# generated using pymatgen
data_Fe(SO4)2
_symmetry_space_group_name_H-M   'P 1'
_cell_length_a   8.44917019
_cell_length_b   8.44917019
_cell_length_c   22.57296673
_cell_angle_alpha   90.00000000
_cell_angle_beta   90.00000000
_cell_angle_gamma   120.00000000
_symmetry_Int_Tables_number   1
_chemical_formula_structural   Fe(SO4)2
_chemical_formula_sum   'Fe9 S18 O72'
_cell_volume   1395.55638784
_cell_formula_units_Z   9
loop_
 _symmetry_equiv_pos_site_id
 _symmetry_equiv_pos_as_xyz
  1  'x, y, z'
loop_
 _atom_site_type_symbol
 _atom_site_label
 _atom_site_symmetry_multiplicity
 _atom_site_fract_x
 _atom_site_fract_y
 _atom_site_fract_z
 _atom_site_occupancy
  Fe  Fe0  1  0.33333333  0.66666667  0.31051567  1
  Fe  Fe1  1  0.33333333  0.66666667  0.02316867  1
  Fe  Fe2  1  0.00000000  0.00000000  0.14894500  1
  Fe  Fe3  1  0.00000000  0.00000000  0.64384900  1
  Fe  Fe4  1  0.00000000  0.00000000  0.35650200  1
  Fe  Fe5  1  0.66666667  0.33333333  0.48227833  1
  Fe  Fe6  1  0.66666667  0.33333333  0.97718233  1
  Fe  Fe7  1  0.66666667  0.33333333  0.68983533  1
  Fe  Fe8  1  0.33333333  0.66666667  0.81561167  1
  S  S9  1  0.71085400  0.71701100  0.24988600  1
  S  S10  1  0.28298900  0.99384300  0.24988600  1
  S  S11  1  0.00615700  0.28914600  0.24988600  1
  S  S12  1  0.66696567  0.04402533  0.08365933  1
  S  S13  1  0.37705967  0.33303433  0.08365933  1
  S  S14  1  0.95597467  0.62294033  0.08365933  1
  S  S15  1  0.37752067  0.05034433  0.58321933  1
  S  S16  1  0.94965567  0.32717633  0.58321933  1
  S  S17  1  0.67282367  0.62247933  0.58321933  1
  S  S18  1  0.33363233  0.37735867  0.41699267  1
  S  S19  1  0.04372633  0.66636767  0.41699267  1
  S  S20  1  0.62264133  0.95627367  0.41699267  1
  S  S21  1  0.04418733  0.38367767  0.91655267  1
  S  S22  1  0.61632233  0.66050967  0.91655267  1
  S  S23  1  0.33949033  0.95581267  0.91655267  1
  S  S24  1  0.00029900  0.71069200  0.75032600  1
  S  S25  1  0.71039300  0.99970100  0.75032600  1
  S  S26  1  0.28930800  0.28960700  0.75032600  1
  O  O27  1  0.85871467  0.54043633  0.02710833  1
  O  O28  1  0.68172167  0.14128533  0.02710833  1
  O  O29  1  0.75741233  0.57661567  0.23759867  1
  O  O30  1  0.45956367  0.31827833  0.02710833  1
  O  O31  1  0.77546400  0.85593300  0.20086900  1
  O  O32  1  0.51148567  0.64436833  0.25637733  1
  O  O33  1  0.35563167  0.86711733  0.25637733  1
  O  O34  1  0.42338433  0.18079667  0.23759867  1
  O  O35  1  0.13288267  0.48851433  0.25637733  1
  O  O36  1  0.85476100  0.07812300  0.09759500  1
  O  O37  1  0.59401667  0.10276633  0.13211533  1
  O  O38  1  0.50874967  0.40598333  0.13211533  1
  O  O39  1  0.14406700  0.91953100  0.20086900  1
  O  O40  1  0.08046900  0.22453600  0.20086900  1
  O  O41  1  0.81920333  0.24258767  0.23759867  1
  O  O42  1  0.54561033  0.84281267  0.07387567  1
  O  O43  1  0.22336200  0.14523900  0.09759500  1
  O  O44  1  0.29720233  0.45438967  0.07387567  1
  O  O45  1  0.15718733  0.70279767  0.07387567  1
  O  O46  1  0.89723367  0.49125033  0.13211533  1
  O  O47  1  0.18835433  0.98700567  0.30702967  1
  O  O48  1  0.92187700  0.77663800  0.09759500  1
  O  O49  1  0.01299433  0.20134867  0.30702967  1
  O  O50  1  0.79865133  0.81164567  0.30702967  1
  O  O51  1  0.52538133  0.87376967  0.36044167  1
  O  O52  1  0.34838833  0.47461867  0.36044167  1
  O  O53  1  0.42407900  0.90994900  0.57093200  1
  O  O54  1  0.12623033  0.65161167  0.36044167  1
  O  O55  1  0.44213067  0.18926633  0.53420233  1
  O  O56  1  0.17815233  0.97770167  0.58971067  1
  O  O57  1  0.02229833  0.20045067  0.58971067  1
  O  O58  1  0.09005100  0.51413000  0.57093200  1
  O  O59  1  0.79954933  0.82184767  0.58971067  1
  O  O60  1  0.52142767  0.41145633  0.43092833  1
  O  O61  1  0.26068333  0.43609967  0.46544867  1
  O  O62  1  0.17541633  0.73931667  0.46544867  1
  O  O63  1  0.81073367  0.25286433  0.53420233  1
  O  O64  1  0.74713567  0.55786933  0.53420233  1
  O  O65  1  0.48587000  0.57592100  0.57093200  1
  O  O66  1  0.21227700  0.17614600  0.40720900  1
  O  O67  1  0.89002867  0.47857233  0.43092833  1
  O  O68  1  0.96386900  0.78772300  0.40720900  1
  O  O69  1  0.82385400  0.03613100  0.40720900  1
  O  O70  1  0.56390033  0.82458367  0.46544867  1
  O  O71  1  0.85502100  0.32033900  0.64036300  1
  O  O72  1  0.58854367  0.10997133  0.43092833  1
  O  O73  1  0.67966100  0.53468200  0.64036300  1
  O  O74  1  0.46531800  0.14497900  0.64036300  1
  O  O75  1  0.19204800  0.20710300  0.69377500  1
  O  O76  1  0.01505500  0.80795200  0.69377500  1
  O  O77  1  0.09074567  0.24328233  0.90426533  1
  O  O78  1  0.79289700  0.98494500  0.69377500  1
  O  O79  1  0.10879733  0.52259967  0.86753567  1
  O  O80  1  0.84481900  0.31103500  0.92304400  1
  O  O81  1  0.68896500  0.53378400  0.92304400  1
  O  O82  1  0.75671767  0.84746333  0.90426533  1
  O  O83  1  0.46621600  0.15518100  0.92304400  1
  O  O84  1  0.18809433  0.74478967  0.76426167  1
  O  O85  1  0.92735000  0.76943300  0.79878200  1
  O  O86  1  0.84208300  0.07265000  0.79878200  1
  O  O87  1  0.47740033  0.58619767  0.86753567  1
  O  O88  1  0.41380233  0.89120267  0.86753567  1
  O  O89  1  0.15253667  0.90925433  0.90426533  1
  O  O90  1  0.87894367  0.50947933  0.74054233  1
  O  O91  1  0.55669533  0.81190567  0.76426167  1
  O  O92  1  0.63053567  0.12105633  0.74054233  1
  O  O93  1  0.49052067  0.36946433  0.74054233  1
  O  O94  1  0.23056700  0.15791700  0.79878200  1
  O  O95  1  0.52168767  0.65367233  0.97369633  1
  O  O96  1  0.25521033  0.44330467  0.76426167  1
  O  O97  1  0.34632767  0.86801533  0.97369633  1
  O  O98  1  0.13198467  0.47831233  0.97369633  1
