# generated using pymatgen
data_Fe3NiSn2(PO4)6
_symmetry_space_group_name_H-M   'P 1'
_cell_length_a   8.69124009
_cell_length_b   8.69124009
_cell_length_c   21.12266529
_cell_angle_alpha   90.00000000
_cell_angle_beta   90.00000000
_cell_angle_gamma   120.00000000
_symmetry_Int_Tables_number   1
_chemical_formula_structural   Fe3NiSn2(PO4)6
_chemical_formula_sum   'Fe9 Ni3 Sn6 P18 O72'
_cell_volume   1381.79254059
_cell_formula_units_Z   3
loop_
 _symmetry_equiv_pos_site_id
 _symmetry_equiv_pos_as_xyz
  1  'x, y, z'
loop_
 _atom_site_type_symbol
 _atom_site_label
 _atom_site_symmetry_multiplicity
 _atom_site_fract_x
 _atom_site_fract_y
 _atom_site_fract_z
 _atom_site_occupancy
  Fe  Fe0  1  0.33333333  0.66666667  0.81623967  1
  Fe  Fe1  1  0.33333333  0.66666667  0.01879367  1
  Fe  Fe2  1  0.33333333  0.66666667  0.31525767  1
  Fe  Fe3  1  0.00000000  0.00000000  0.14957300  1
  Fe  Fe4  1  0.00000000  0.00000000  0.35212700  1
  Fe  Fe5  1  0.00000000  0.00000000  0.64859100  1
  Fe  Fe6  1  0.66666667  0.33333333  0.48290633  1
  Fe  Fe7  1  0.66666667  0.33333333  0.68546033  1
  Fe  Fe8  1  0.66666667  0.33333333  0.98192433  1
  Ni  Ni9  1  0.33333333  0.66666667  0.51917567  1
  Ni  Ni10  1  0.00000000  0.00000000  0.85250900  1
  Ni  Ni11  1  0.66666667  0.33333333  0.18584233  1
  Sn  Sn12  1  0.33333333  0.66666667  0.66575667  1
  Sn  Sn13  1  0.33333333  0.66666667  0.16585767  1
  Sn  Sn14  1  0.00000000  0.00000000  0.99909000  1
  Sn  Sn15  1  0.00000000  0.00000000  0.49919100  1
  Sn  Sn16  1  0.66666667  0.33333333  0.33242333  1
  Sn  Sn17  1  0.66666667  0.33333333  0.83252433  1
  P  P18  1  0.66783767  0.04105433  0.08263533  1
  P  P19  1  0.99868167  0.29357533  0.25140833  1
  P  P20  1  0.29489367  0.00131833  0.25140833  1
  P  P21  1  0.70642467  0.70510633  0.25140833  1
  P  P22  1  0.95894567  0.62678333  0.08263533  1
  P  P23  1  0.37321667  0.33216233  0.08263533  1
  P  P24  1  0.33450433  0.37438767  0.41596867  1
  P  P25  1  0.66534833  0.62690867  0.58474167  1
  P  P26  1  0.96156033  0.33465167  0.58474167  1
  P  P27  1  0.37309133  0.03843967  0.58474167  1
  P  P28  1  0.62561233  0.96011667  0.41596867  1
  P  P29  1  0.03988333  0.66549567  0.41596867  1
  P  P30  1  0.00117100  0.70772100  0.74930200  1
  P  P31  1  0.33201500  0.96024200  0.91807500  1
  P  P32  1  0.62822700  0.66798500  0.91807500  1
  P  P33  1  0.03975800  0.37177300  0.91807500  1
  P  P34  1  0.29227900  0.29345000  0.74930200  1
  P  P35  1  0.70655000  0.99882900  0.74930200  1
  O  O36  1  0.13407833  0.47263267  0.97739967  1
  O  O37  1  0.33855433  0.86592167  0.97739967  1
  O  O38  1  0.98375867  0.82209133  0.07356533  1
  O  O39  1  0.52736733  0.66144567  0.97739967  1
  O  O40  1  0.86833767  0.54121433  0.14356733  1
  O  O41  1  0.15309233  0.65727367  0.08652867  1
  O  O42  1  0.17790867  0.16166733  0.07356533  1
  O  O43  1  0.34272633  0.49581867  0.08652867  1
  O  O44  1  0.99253067  0.19546933  0.19054833  1
  O  O45  1  0.50418133  0.84690767  0.08652867  1
  O  O46  1  0.83059500  0.31719700  0.25983900  1
  O  O47  1  0.20293867  0.00746933  0.19054833  1
  O  O48  1  0.45878567  0.32712333  0.14356733  1
  O  O49  1  0.83833267  0.01624133  0.07356533  1
  O  O50  1  0.16475567  0.48393133  0.24523533  1
  O  O51  1  0.67287667  0.13166233  0.14356733  1
  O  O52  1  0.31917567  0.83524433  0.24523533  1
  O  O53  1  0.48660200  0.16940500  0.25983900  1
  O  O54  1  0.51606867  0.68082433  0.24523533  1
  O  O55  1  0.80453067  0.79706133  0.19054833  1
  O  O56  1  0.13663967  0.66835333  0.35557933  1
  O  O57  1  0.68280300  0.51339800  0.25983900  1
  O  O58  1  0.33164667  0.46828633  0.35557933  1
  O  O59  1  0.53171367  0.86336033  0.35557933  1
  O  O60  1  0.80074500  0.80596600  0.31073300  1
  O  O61  1  0.00522100  0.19925500  0.31073300  1
  O  O62  1  0.65042533  0.15542467  0.40689867  1
  O  O63  1  0.19403400  0.99477900  0.31073300  1
  O  O64  1  0.53500433  0.87454767  0.47690067  1
  O  O65  1  0.81975900  0.99060700  0.41986200  1
  O  O66  1  0.84457533  0.49500067  0.40689867  1
  O  O67  1  0.00939300  0.82915200  0.41986200  1
  O  O68  1  0.65919733  0.52880267  0.52388167  1
  O  O69  1  0.17084800  0.18024100  0.41986200  1
  O  O70  1  0.49726167  0.65053033  0.59317233  1
  O  O71  1  0.86960533  0.34080267  0.52388167  1
  O  O72  1  0.12545233  0.66045667  0.47690067  1
  O  O73  1  0.50499933  0.34957467  0.40689867  1
  O  O74  1  0.83142233  0.81726467  0.57856867  1
  O  O75  1  0.33954333  0.46499567  0.47690067  1
  O  O76  1  0.98584233  0.16857767  0.57856867  1
  O  O77  1  0.15326867  0.50273833  0.59317233  1
  O  O78  1  0.18273533  0.01415767  0.57856867  1
  O  O79  1  0.47119733  0.13039467  0.52388167  1
  O  O80  1  0.80330633  0.00168667  0.68891267  1
  O  O81  1  0.34946967  0.84673133  0.59317233  1
  O  O82  1  0.99831333  0.80161967  0.68891267  1
  O  O83  1  0.19838033  0.19669367  0.68891267  1
  O  O84  1  0.46741167  0.13929933  0.64406633  1
  O  O85  1  0.67188767  0.53258833  0.64406633  1
  O  O86  1  0.31709200  0.48875800  0.74023200  1
  O  O87  1  0.86070067  0.32811233  0.64406633  1
  O  O88  1  0.20167100  0.20788100  0.81023400  1
  O  O89  1  0.48642567  0.32394033  0.75319533  1
  O  O90  1  0.51124200  0.82833400  0.74023200  1
  O  O91  1  0.67605967  0.16248533  0.75319533  1
  O  O92  1  0.32586400  0.86213600  0.85721500  1
  O  O93  1  0.83751467  0.51357433  0.75319533  1
  O  O94  1  0.16392833  0.98386367  0.92650567  1
  O  O95  1  0.53627200  0.67413600  0.85721500  1
  O  O96  1  0.79211900  0.99379000  0.81023400  1
  O  O97  1  0.17166600  0.68290800  0.74023200  1
  O  O98  1  0.49808900  0.15059800  0.91190200  1
  O  O99  1  0.00621000  0.79832900  0.81023400  1
  O  O100  1  0.65250900  0.50191100  0.91190200  1
  O  O101  1  0.81993533  0.83607167  0.92650567  1
  O  O102  1  0.84940200  0.34749100  0.91190200  1
  O  O103  1  0.13786400  0.46372800  0.85721500  1
  O  O104  1  0.46997300  0.33502000  0.02224600  1
  O  O105  1  0.01613633  0.18006467  0.92650567  1
  O  O106  1  0.66498000  0.13495300  0.02224600  1
  O  O107  1  0.86504700  0.53002700  0.02224600  1
