# generated using pymatgen
data_Li2CoOF2
_symmetry_space_group_name_H-M   'P 1'
_cell_length_a   2.95565384
_cell_length_b   2.95565384
_cell_length_c   12.58785153
_cell_angle_alpha   90.00000000
_cell_angle_beta   90.00000000
_cell_angle_gamma   90.00000000
_symmetry_Int_Tables_number   1
_chemical_formula_structural   Li2CoOF2
_chemical_formula_sum   'Li4 Co2 O2 F4'
_cell_volume   109.96608116
_cell_formula_units_Z   2
loop_
 _symmetry_equiv_pos_site_id
 _symmetry_equiv_pos_as_xyz
  1  'x, y, z'
loop_
 _atom_site_type_symbol
 _atom_site_label
 _atom_site_symmetry_multiplicity
 _atom_site_fract_x
 _atom_site_fract_y
 _atom_site_fract_z
 _atom_site_occupancy
  Li  Li0  1  0.00000000  0.50000000  0.74422975  1
  Li  Li1  1  0.50000000  0.00000000  0.25577025  1
  Li  Li2  1  0.00000000  0.50000000  0.42035625  1
  Li  Li3  1  0.50000000  0.00000000  0.57964375  1
  Co  Co4  1  0.50000000  0.00000000  0.91629275  1
  Co  Co5  1  0.00000000  0.50000000  0.08370725  1
  O  O6  1  0.00000000  0.50000000  0.91113375  1
  O  O7  1  0.50000000  0.00000000  0.08886625  1
  F  F8  1  0.50000000  0.00000000  0.73944225  1
  F  F9  1  0.00000000  0.50000000  0.26055775  1
  F  F10  1  0.50000000  0.00000000  0.41913625  1
  F  F11  1  0.00000000  0.50000000  0.58086375  1
