# generated using pymatgen
data_Co2O3F
_symmetry_space_group_name_H-M   'P 1'
_cell_length_a   6.04773800
_cell_length_b   6.35228000
_cell_length_c   11.80212500
_cell_angle_alpha   90.00000000
_cell_angle_beta   90.00000000
_cell_angle_gamma   90.00000000
_symmetry_Int_Tables_number   1
_chemical_formula_structural   Co2O3F
_chemical_formula_sum   'Co16 O24 F8'
_cell_volume   453.40135265
_cell_formula_units_Z   8
loop_
 _symmetry_equiv_pos_site_id
 _symmetry_equiv_pos_as_xyz
  1  'x, y, z'
loop_
 _atom_site_type_symbol
 _atom_site_label
 _atom_site_symmetry_multiplicity
 _atom_site_fract_x
 _atom_site_fract_y
 _atom_site_fract_z
 _atom_site_occupancy
  Co  Co0  1  0.50000000  0.49683300  0.37501000  1
  Co  Co1  1  0.50000000  0.49683300  0.62499000  1
  Co  Co2  1  0.50000000  0.48601200  0.87485800  1
  Co  Co3  1  0.50000000  0.48601200  0.12514200  1
  Co  Co4  1  0.50000000  0.97044700  0.50000000  1
  Co  Co5  1  0.50000000  0.02005100  0.00000000  1
  Co  Co6  1  0.50000000  0.02090600  0.75011300  1
  Co  Co7  1  0.50000000  0.02090600  0.24988700  1
  Co  Co8  1  0.00000000  0.99683300  0.37501000  1
  Co  Co9  1  0.00000000  0.99683300  0.62499000  1
  Co  Co10  1  0.00000000  0.98601200  0.87485800  1
  Co  Co11  1  0.00000000  0.98601200  0.12514200  1
  Co  Co12  1  0.00000000  0.47044700  0.50000000  1
  Co  Co13  1  0.00000000  0.52005100  0.00000000  1
  Co  Co14  1  0.00000000  0.52090600  0.75011300  1
  Co  Co15  1  0.00000000  0.52090600  0.24988700  1
  O  O16  1  0.50000000  0.30171300  0.00000000  1
  O  O17  1  0.50000000  0.30422200  0.75036800  1
  O  O18  1  0.50000000  0.30422200  0.24963200  1
  O  O19  1  0.30640750  0.99383950  0.37480700  1
  O  O20  1  0.30640750  0.99383950  0.62519300  1
  O  O21  1  0.30478300  0.00772200  0.12506500  1
  O  O22  1  0.30478300  0.00772200  0.87493500  1
  O  O23  1  0.69359250  0.99383950  0.37480700  1
  O  O24  1  0.69359250  0.99383950  0.62519300  1
  O  O25  1  0.69521700  0.00772200  0.87493500  1
  O  O26  1  0.69521700  0.00772200  0.12506500  1
  O  O27  1  0.50000000  0.68934900  0.50000000  1
  O  O28  1  0.00000000  0.80171300  0.00000000  1
  O  O29  1  0.00000000  0.80422200  0.75036800  1
  O  O30  1  0.00000000  0.80422200  0.24963200  1
  O  O31  1  0.80640750  0.49383950  0.37480700  1
  O  O32  1  0.80640750  0.49383950  0.62519300  1
  O  O33  1  0.80478300  0.50772200  0.12506500  1
  O  O34  1  0.80478300  0.50772200  0.87493500  1
  O  O35  1  0.19359250  0.49383950  0.37480700  1
  O  O36  1  0.19359250  0.49383950  0.62519300  1
  O  O37  1  0.19521700  0.50772200  0.87493500  1
  O  O38  1  0.19521700  0.50772200  0.12506500  1
  O  O39  1  0.00000000  0.18934900  0.50000000  1
  F  F40  1  0.50000000  0.27594400  0.50000000  1
  F  F41  1  0.50000000  0.69885700  0.00000000  1
  F  F42  1  0.50000000  0.71072200  0.75425500  1
  F  F43  1  0.50000000  0.71072200  0.24574500  1
  F  F44  1  0.00000000  0.77594400  0.50000000  1
  F  F45  1  0.00000000  0.19885700  0.00000000  1
  F  F46  1  0.00000000  0.21072200  0.75425500  1
  F  F47  1  0.00000000  0.21072200  0.24574500  1
