# generated using pymatgen
data_CsTi(NbCl3)6
_symmetry_space_group_name_H-M   'P 1'
_cell_length_a   9.20573356
_cell_length_b   9.20573356
_cell_length_c   17.19844900
_cell_angle_alpha   90.00000000
_cell_angle_beta   90.00000000
_cell_angle_gamma   120.00000000
_symmetry_Int_Tables_number   1
_chemical_formula_structural   CsTi(NbCl3)6
_chemical_formula_sum   'Cs2 Ti2 Nb12 Cl36'
_cell_volume   1262.22482342
_cell_formula_units_Z   2
loop_
 _symmetry_equiv_pos_site_id
 _symmetry_equiv_pos_as_xyz
  1  'x, y, z'
loop_
 _atom_site_type_symbol
 _atom_site_label
 _atom_site_symmetry_multiplicity
 _atom_site_fract_x
 _atom_site_fract_y
 _atom_site_fract_z
 _atom_site_occupancy
  Cs  Cs0  1  0.33333333  0.66666667  0.75000000  1
  Cs  Cs1  1  0.66666667  0.33333333  0.25000000  1
  Ti  Ti2  1  0.33333333  0.66666667  0.25000000  1
  Ti  Ti3  1  0.66666667  0.33333333  0.75000000  1
  Nb  Nb4  1  0.04613233  0.84393967  0.43056000  1
  Nb  Nb5  1  0.15606033  0.95386767  0.06944000  1
  Nb  Nb6  1  0.04613233  0.20219267  0.06944000  1
  Nb  Nb7  1  0.15606033  0.20219267  0.43056000  1
  Nb  Nb8  1  0.20219267  0.15606033  0.93056000  1
  Nb  Nb9  1  0.20219267  0.04613233  0.56944000  1
  Nb  Nb10  1  0.79780733  0.95386767  0.43056000  1
  Nb  Nb11  1  0.79780733  0.84393967  0.06944000  1
  Nb  Nb12  1  0.84393967  0.79780733  0.56944000  1
  Nb  Nb13  1  0.95386767  0.79780733  0.93056000  1
  Nb  Nb14  1  0.84393967  0.04613233  0.93056000  1
  Nb  Nb15  1  0.95386767  0.15606033  0.56944000  1
  Cl  Cl16  1  0.05379033  0.81279767  0.66215600  1
  Cl  Cl17  1  0.18720233  0.94620967  0.83784400  1
  Cl  Cl18  1  0.13602133  0.71295067  0.99795600  1
  Cl  Cl19  1  0.10291733  0.64191267  0.33376600  1
  Cl  Cl20  1  0.28704933  0.86397867  0.50204400  1
  Cl  Cl21  1  0.10291733  0.46100467  0.16623400  1
  Cl  Cl22  1  0.35808733  0.89708267  0.16623400  1
  Cl  Cl23  1  0.13602133  0.42307067  0.50204400  1
  Cl  Cl24  1  0.05379033  0.24099267  0.83784400  1
  Cl  Cl25  1  0.18720233  0.24099267  0.66215600  1
  Cl  Cl26  1  0.28704933  0.42307067  0.99795600  1
  Cl  Cl27  1  0.53899533  0.89708267  0.33376600  1
  Cl  Cl28  1  0.35808733  0.46100467  0.33376600  1
  Cl  Cl29  1  0.57692933  0.86397867  0.99795600  1
  Cl  Cl30  1  0.24099267  0.18720233  0.16215600  1
  Cl  Cl31  1  0.24099267  0.05379033  0.33784400  1
  Cl  Cl32  1  0.53899533  0.64191267  0.16623400  1
  Cl  Cl33  1  0.57692933  0.71295067  0.50204400  1
  Cl  Cl34  1  0.42307067  0.28704933  0.49795600  1
  Cl  Cl35  1  0.46100467  0.35808733  0.83376600  1
  Cl  Cl36  1  0.75900733  0.94620967  0.66215600  1
  Cl  Cl37  1  0.75900733  0.81279767  0.83784400  1
  Cl  Cl38  1  0.42307067  0.13602133  0.00204400  1
  Cl  Cl39  1  0.64191267  0.53899533  0.66623400  1
  Cl  Cl40  1  0.46100467  0.10291733  0.66623400  1
  Cl  Cl41  1  0.71295067  0.57692933  0.00204400  1
  Cl  Cl42  1  0.81279767  0.75900733  0.33784400  1
  Cl  Cl43  1  0.94620967  0.75900733  0.16215600  1
  Cl  Cl44  1  0.86397867  0.57692933  0.49795600  1
  Cl  Cl45  1  0.64191267  0.10291733  0.83376600  1
  Cl  Cl46  1  0.89708267  0.53899533  0.83376600  1
  Cl  Cl47  1  0.71295067  0.13602133  0.49795600  1
  Cl  Cl48  1  0.89708267  0.35808733  0.66623400  1
  Cl  Cl49  1  0.86397867  0.28704933  0.00204400  1
  Cl  Cl50  1  0.81279767  0.05379033  0.16215600  1
  Cl  Cl51  1  0.94620967  0.18720233  0.33784400  1
