# generated using pymatgen
data_Li2Cr3FeO8
_symmetry_space_group_name_H-M   'P 1'
_cell_length_a   5.93882365
_cell_length_b   5.93882365
_cell_length_c   14.47331492
_cell_angle_alpha   90.00000000
_cell_angle_beta   90.00000000
_cell_angle_gamma   120.00000000
_symmetry_Int_Tables_number   1
_chemical_formula_structural   Li2Cr3FeO8
_chemical_formula_sum   'Li6 Cr9 Fe3 O24'
_cell_volume   442.07861001
_cell_formula_units_Z   3
loop_
 _symmetry_equiv_pos_site_id
 _symmetry_equiv_pos_as_xyz
  1  'x, y, z'
loop_
 _atom_site_type_symbol
 _atom_site_label
 _atom_site_symmetry_multiplicity
 _atom_site_fract_x
 _atom_site_fract_y
 _atom_site_fract_z
 _atom_site_occupancy
  Li  Li0  1  0.33333333  0.66666667  0.54198067  1
  Li  Li1  1  0.33333333  0.66666667  0.79135267  1
  Li  Li2  1  0.00000000  0.00000000  0.87531400  1
  Li  Li3  1  0.00000000  0.00000000  0.12468600  1
  Li  Li4  1  0.66666667  0.33333333  0.20864733  1
  Li  Li5  1  0.66666667  0.33333333  0.45801933  1
  Cr  Cr6  1  0.00000000  0.50000000  0.00000000  1
  Cr  Cr7  1  0.50000000  0.50000000  0.00000000  1
  Cr  Cr8  1  0.16666667  0.33333333  0.33333333  1
  Cr  Cr9  1  0.66666667  0.83333333  0.33333333  1
  Cr  Cr10  1  0.16666667  0.83333333  0.33333333  1
  Cr  Cr11  1  0.83333333  0.66666667  0.66666667  1
  Cr  Cr12  1  0.33333333  0.16666667  0.66666667  1
  Cr  Cr13  1  0.83333333  0.16666667  0.66666667  1
  Cr  Cr14  1  0.50000000  0.00000000  0.00000000  1
  Fe  Fe15  1  0.33333333  0.66666667  0.16666667  1
  Fe  Fe16  1  1.00000000  1.00000000  0.50000000  1
  Fe  Fe17  1  0.66666667  0.33333333  0.83333333  1
  O  O18  1  0.33333333  0.66666667  0.39923567  1
  O  O19  1  0.48389267  0.96778533  0.25465533  1
  O  O20  1  0.48389267  0.51610733  0.25465533  1
  O  O21  1  0.03221467  0.51610733  0.25465533  1
  O  O22  1  0.63445200  0.81722600  0.07867800  1
  O  O23  1  0.18277400  0.81722600  0.07867800  1
  O  O24  1  0.18277400  0.36554800  0.07867800  1
  O  O25  1  0.33333333  0.66666667  0.93409767  1
  O  O26  1  0.00000000  0.00000000  0.73256900  1
  O  O27  1  0.15055933  0.30111867  0.58798867  1
  O  O28  1  0.15055933  0.84944067  0.58798867  1
  O  O29  1  0.69888133  0.84944067  0.58798867  1
  O  O30  1  0.30111867  0.15055933  0.41201133  1
  O  O31  1  0.84944067  0.15055933  0.41201133  1
  O  O32  1  0.84944067  0.69888133  0.41201133  1
  O  O33  1  0.00000000  0.00000000  0.26743100  1
  O  O34  1  0.66666667  0.33333333  0.06590233  1
  O  O35  1  0.81722600  0.63445200  0.92132200  1
  O  O36  1  0.81722600  0.18277400  0.92132200  1
  O  O37  1  0.36554800  0.18277400  0.92132200  1
  O  O38  1  0.96778533  0.48389267  0.74534467  1
  O  O39  1  0.51610733  0.48389267  0.74534467  1
  O  O40  1  0.51610733  0.03221467  0.74534467  1
  O  O41  1  0.66666667  0.33333333  0.60076433  1
