# generated using pymatgen
data_Na3CoBSO7
_symmetry_space_group_name_H-M   'P 1'
_cell_length_a   5.28741110
_cell_length_b   6.84885606
_cell_length_c   8.98854646
_cell_angle_alpha   90.00000000
_cell_angle_beta   91.26452348
_cell_angle_gamma   90.00000000
_symmetry_Int_Tables_number   1
_chemical_formula_structural   Na3CoBSO7
_chemical_formula_sum   'Na6 Co2 B2 S2 O14'
_cell_volume   325.42042369
_cell_formula_units_Z   2
loop_
 _symmetry_equiv_pos_site_id
 _symmetry_equiv_pos_as_xyz
  1  'x, y, z'
loop_
 _atom_site_type_symbol
 _atom_site_label
 _atom_site_symmetry_multiplicity
 _atom_site_fract_x
 _atom_site_fract_y
 _atom_site_fract_z
 _atom_site_occupancy
  Na  Na0  1  0.24786350  0.75000000  0.43518200  1
  Na  Na1  1  0.75213650  0.25000000  0.56481800  1
  Na  Na2  1  0.74278900  0.00792900  0.25991750  1
  Na  Na3  1  0.74278900  0.49207100  0.25991750  1
  Na  Na4  1  0.25721100  0.50792900  0.74008250  1
  Na  Na5  1  0.25721100  0.99207100  0.74008250  1
  Co  Co6  1  0.26700900  0.25000000  0.16464950  1
  Co  Co7  1  0.73299100  0.75000000  0.83535050  1
  B  B8  1  0.23270200  0.25000000  0.43490250  1
  B  B9  1  0.76729800  0.75000000  0.56509750  1
  S  S10  1  0.21447950  0.75000000  0.08004200  1
  S  S11  1  0.78552050  0.25000000  0.91995800  1
  O  O12  1  0.78971550  0.75000000  0.41459600  1
  O  O13  1  0.21028450  0.25000000  0.58540400  1
  O  O14  1  0.46533600  0.25000000  0.36254150  1
  O  O15  1  0.53466400  0.75000000  0.63745850  1
  O  O16  1  0.02332300  0.25000000  0.33539650  1
  O  O17  1  0.97667700  0.75000000  0.66460350  1
  O  O18  1  0.93498600  0.75000000  0.04532750  1
  O  O19  1  0.06501400  0.25000000  0.95467250  1
  O  O20  1  0.64485350  0.25000000  0.06165800  1
  O  O21  1  0.35514650  0.75000000  0.93834200  1
  O  O22  1  0.28139400  0.92532150  0.17117950  1
  O  O23  1  0.28139400  0.57467850  0.17117950  1
  O  O24  1  0.71860600  0.42532150  0.82882050  1
  O  O25  1  0.71860600  0.07467850  0.82882050  1
