# generated using pymatgen
data_Li2CoSiO4
_symmetry_space_group_name_H-M   'P 1'
_cell_length_a   4.99425413
_cell_length_b   5.45687212
_cell_length_c   6.18910139
_cell_angle_alpha   90.00000000
_cell_angle_beta   90.00000000
_cell_angle_gamma   90.00000000
_symmetry_Int_Tables_number   1
_chemical_formula_structural   Li2CoSiO4
_chemical_formula_sum   'Li4 Co2 Si2 O8'
_cell_volume   168.67161817
_cell_formula_units_Z   2
loop_
 _symmetry_equiv_pos_site_id
 _symmetry_equiv_pos_as_xyz
  1  'x, y, z'
loop_
 _atom_site_type_symbol
 _atom_site_label
 _atom_site_symmetry_multiplicity
 _atom_site_fract_x
 _atom_site_fract_y
 _atom_site_fract_z
 _atom_site_occupancy
  Li  Li0  1  0.99284950  0.16811100  0.25110025  1
  Li  Li1  1  0.49284950  0.83188900  0.24889975  1
  Li  Li2  1  0.99284950  0.16811100  0.74889975  1
  Li  Li3  1  0.49284950  0.83188900  0.75110025  1
  Co  Co4  1  0.49306900  0.34054750  0.50000000  1
  Co  Co5  1  0.99306900  0.65945250  0.00000000  1
  Si  Si6  1  0.99939850  0.67307450  0.50000000  1
  Si  Si7  1  0.49939850  0.32692550  0.00000000  1
  O  O8  1  0.89430100  0.38458900  0.50000000  1
  O  O9  1  0.39430100  0.61541100  0.00000000  1
  O  O10  1  0.33029850  0.67308050  0.50000000  1
  O  O11  1  0.83029850  0.32691950  0.00000000  1
  O  O12  1  0.39181050  0.18125000  0.21786425  1
  O  O13  1  0.89181050  0.81875000  0.28213575  1
  O  O14  1  0.89181050  0.81875000  0.71786425  1
  O  O15  1  0.39181050  0.18125000  0.78213575  1
