# generated using pymatgen
data_Li8CoO5F
_symmetry_space_group_name_H-M   'P 1'
_cell_length_a   5.54506100
_cell_length_b   10.93619600
_cell_length_c   5.56834677
_cell_angle_alpha   90.00000000
_cell_angle_beta   119.52824560
_cell_angle_gamma   90.00000000
_symmetry_Int_Tables_number   1
_chemical_formula_structural   Li8CoO5F
_chemical_formula_sum   'Li16 Co2 O10 F2'
_cell_volume   293.81533695
_cell_formula_units_Z   2
loop_
 _symmetry_equiv_pos_site_id
 _symmetry_equiv_pos_as_xyz
  1  'x, y, z'
loop_
 _atom_site_type_symbol
 _atom_site_label
 _atom_site_symmetry_multiplicity
 _atom_site_fract_x
 _atom_site_fract_y
 _atom_site_fract_z
 _atom_site_occupancy
  Li  Li0  1  0.18642500  0.77259400  0.97237100  1
  Li  Li1  1  0.14122600  0.12055900  0.01734000  1
  Li  Li2  1  0.85877400  0.62055900  0.98266000  1
  Li  Li3  1  0.81357500  0.27259400  0.02762900  1
  Li  Li4  1  0.16519100  0.41364700  0.32554300  1
  Li  Li5  1  0.17040500  0.92487300  0.32849900  1
  Li  Li6  1  0.79057800  0.77247300  0.30743400  1
  Li  Li7  1  0.88588300  0.12230300  0.36286100  1
  Li  Li8  1  0.11411700  0.62230300  0.63713900  1
  Li  Li9  1  0.48039700  0.27189800  0.28789500  1
  Li  Li10  1  0.20942200  0.27247300  0.69256600  1
  Li  Li11  1  0.51976700  0.62202600  0.38036900  1
  Li  Li12  1  0.83480900  0.91364700  0.67445700  1
  Li  Li13  1  0.82959500  0.42487300  0.67150100  1
  Li  Li14  1  0.48023300  0.12202600  0.61963100  1
  Li  Li15  1  0.51960300  0.77189800  0.71210500  1
  Co  Co16  1  0.50644400  0.98780700  0.00257600  1
  Co  Co17  1  0.49355600  0.48780700  0.99742400  1
  O  O18  1  0.17601400  0.94747400  0.99204800  1
  O  O19  1  0.82398600  0.44747400  0.00795200  1
  O  O20  1  0.16958600  0.21322000  0.33155900  1
  O  O21  1  0.49992700  0.67145800  0.99852100  1
  O  O22  1  0.50007300  0.17145800  0.00147900  1
  O  O23  1  0.82340500  0.94888700  0.31688900  1
  O  O24  1  0.50863900  0.44798200  0.32237300  1
  O  O25  1  0.17659500  0.44888700  0.68311100  1
  O  O26  1  0.83041400  0.71322000  0.66844100  1
  O  O27  1  0.49136100  0.94798200  0.67762700  1
  F  F28  1  0.16629900  0.71001900  0.33006400  1
  F  F29  1  0.83370100  0.21001900  0.66993600  1
