# generated using pymatgen
data_Fe5(OF2)4
_symmetry_space_group_name_H-M   'P 1'
_cell_length_a   6.39724800
_cell_length_b   6.82277800
_cell_length_c   8.93748900
_cell_angle_alpha   90.00000000
_cell_angle_beta   90.00000000
_cell_angle_gamma   90.00000000
_symmetry_Int_Tables_number   1
_chemical_formula_structural   Fe5(OF2)4
_chemical_formula_sum   'Fe10 O8 F16'
_cell_volume   390.09460844
_cell_formula_units_Z   2
loop_
 _symmetry_equiv_pos_site_id
 _symmetry_equiv_pos_as_xyz
  1  'x, y, z'
loop_
 _atom_site_type_symbol
 _atom_site_label
 _atom_site_symmetry_multiplicity
 _atom_site_fract_x
 _atom_site_fract_y
 _atom_site_fract_z
 _atom_site_occupancy
  Fe  Fe0  1  0.00000000  0.00000000  0.68072000  1
  Fe  Fe1  1  0.00000000  0.00000000  0.31928000  1
  Fe  Fe2  1  0.50000000  0.00000000  0.50000000  1
  Fe  Fe3  1  0.50000000  0.00000000  0.17297500  1
  Fe  Fe4  1  0.50000000  0.00000000  0.82702500  1
  Fe  Fe5  1  0.50000000  0.50000000  0.68072000  1
  Fe  Fe6  1  0.50000000  0.50000000  0.31928000  1
  Fe  Fe7  1  0.00000000  0.50000000  0.50000000  1
  Fe  Fe8  1  0.00000000  0.50000000  0.17297500  1
  Fe  Fe9  1  0.00000000  0.50000000  0.82702500  1
  O  O10  1  0.30312400  0.00000000  0.34560900  1
  O  O11  1  0.30312400  0.00000000  0.65439100  1
  O  O12  1  0.69687600  0.00000000  0.34560900  1
  O  O13  1  0.69687600  0.00000000  0.65439100  1
  O  O14  1  0.80312400  0.50000000  0.34560900  1
  O  O15  1  0.80312400  0.50000000  0.65439100  1
  O  O16  1  0.19687600  0.50000000  0.34560900  1
  O  O17  1  0.19687600  0.50000000  0.65439100  1
  F  F18  1  0.50000000  0.29202900  0.50000000  1
  F  F19  1  0.50000000  0.29126500  0.82527300  1
  F  F20  1  0.50000000  0.29126500  0.17472700  1
  F  F21  1  0.30620000  0.00000000  0.00000000  1
  F  F22  1  0.69380000  0.00000000  0.00000000  1
  F  F23  1  0.50000000  0.70873500  0.17472700  1
  F  F24  1  0.50000000  0.70873500  0.82527300  1
  F  F25  1  0.50000000  0.70797100  0.50000000  1
  F  F26  1  0.00000000  0.79202900  0.50000000  1
  F  F27  1  0.00000000  0.79126500  0.82527300  1
  F  F28  1  0.00000000  0.79126500  0.17472700  1
  F  F29  1  0.80620000  0.50000000  0.00000000  1
  F  F30  1  0.19380000  0.50000000  0.00000000  1
  F  F31  1  0.00000000  0.20873500  0.17472700  1
  F  F32  1  0.00000000  0.20873500  0.82527300  1
  F  F33  1  0.00000000  0.20797100  0.50000000  1
