# generated using pymatgen
data_Fe5O3F7
_symmetry_space_group_name_H-M   'P 1'
_cell_length_a   4.76925895
_cell_length_b   15.60001100
_cell_length_c   4.78355636
_cell_angle_alpha   90.00000000
_cell_angle_beta   90.35279403
_cell_angle_gamma   90.00000000
_symmetry_Int_Tables_number   1
_chemical_formula_structural   Fe5O3F7
_chemical_formula_sum   'Fe10 O6 F14'
_cell_volume   355.89220020
_cell_formula_units_Z   2
loop_
 _symmetry_equiv_pos_site_id
 _symmetry_equiv_pos_as_xyz
  1  'x, y, z'
loop_
 _atom_site_type_symbol
 _atom_site_label
 _atom_site_symmetry_multiplicity
 _atom_site_fract_x
 _atom_site_fract_y
 _atom_site_fract_z
 _atom_site_occupancy
  Fe  Fe0  1  0.03888600  0.00000000  0.95291700  1
  Fe  Fe1  1  0.97171800  0.79540800  0.01848500  1
  Fe  Fe2  1  0.97940300  0.60094400  0.97397600  1
  Fe  Fe3  1  0.97940300  0.39905600  0.97397600  1
  Fe  Fe4  1  0.97171800  0.20459200  0.01848500  1
  Fe  Fe5  1  0.50185500  0.90128300  0.48953600  1
  Fe  Fe6  1  0.51663200  0.50000000  0.52083100  1
  Fe  Fe7  1  0.53371100  0.70836100  0.51136000  1
  Fe  Fe8  1  0.53371100  0.29163900  0.51136000  1
  Fe  Fe9  1  0.50185500  0.09871700  0.48953600  1
  O  O10  1  0.79951600  0.69641000  0.80987500  1
  O  O11  1  0.81635800  0.50000000  0.80886600  1
  O  O12  1  0.79951600  0.30359000  0.80987500  1
  O  O13  1  0.67680300  0.80359800  0.31978200  1
  O  O14  1  0.67680300  0.19640200  0.31978200  1
  O  O15  1  0.32641800  0.00000000  0.65959500  1
  F  F16  1  0.79275000  0.89851000  0.79588600  1
  F  F17  1  0.79275000  0.10149000  0.79588600  1
  F  F18  1  0.71087000  0.00000000  0.28033000  1
  F  F19  1  0.69878700  0.60419400  0.30046300  1
  F  F20  1  0.69878700  0.39580600  0.30046300  1
  F  F21  1  0.29036600  0.80071400  0.70798700  1
  F  F22  1  0.30294000  0.60600200  0.69890200  1
  F  F23  1  0.30294000  0.39399800  0.69890200  1
  F  F24  1  0.29036600  0.19928600  0.70798700  1
  F  F25  1  0.19619800  0.89726000  0.19613500  1
  F  F26  1  0.20205100  0.50000000  0.19851100  1
  F  F27  1  0.20034500  0.69161300  0.21708600  1
  F  F28  1  0.19619800  0.10274000  0.19613500  1
  F  F29  1  0.20034500  0.30838700  0.21708600  1
