# generated using pymatgen
data_K3NiPCO7
_symmetry_space_group_name_H-M   'P 1'
_cell_length_a   5.63411078
_cell_length_b   6.89381600
_cell_length_c   9.52297842
_cell_angle_alpha   90.00000000
_cell_angle_beta   90.08629840
_cell_angle_gamma   90.00000000
_symmetry_Int_Tables_number   1
_chemical_formula_structural   K3NiPCO7
_chemical_formula_sum   'K6 Ni2 P2 C2 O14'
_cell_volume   369.87704282
_cell_formula_units_Z   2
loop_
 _symmetry_equiv_pos_site_id
 _symmetry_equiv_pos_as_xyz
  1  'x, y, z'
loop_
 _atom_site_type_symbol
 _atom_site_label
 _atom_site_symmetry_multiplicity
 _atom_site_fract_x
 _atom_site_fract_y
 _atom_site_fract_z
 _atom_site_occupancy
  K  K0  1  0.75359650  0.75000000  0.43017600  1
  K  K1  1  0.24640350  0.25000000  0.56982400  1
  K  K2  1  0.25444750  0.98912300  0.20418300  1
  K  K3  1  0.25444750  0.51087700  0.20418300  1
  K  K4  1  0.74555250  0.48912300  0.79581700  1
  K  K5  1  0.74555250  0.01087700  0.79581700  1
  Ni  Ni6  1  0.24431250  0.75000000  0.84727900  1
  Ni  Ni7  1  0.75568750  0.25000000  0.15272100  1
  P  P8  1  0.74291950  0.75000000  0.08000900  1
  P  P9  1  0.25708050  0.25000000  0.91999100  1
  C  C10  1  0.74696250  0.25000000  0.41706600  1
  C  C11  1  0.25303750  0.75000000  0.58293400  1
  O  O12  1  0.25619450  0.75000000  0.44774800  1
  O  O13  1  0.74380550  0.25000000  0.55225200  1
  O  O14  1  0.94610150  0.25000000  0.34588700  1
  O  O15  1  0.05389850  0.75000000  0.65411300  1
  O  O16  1  0.55078150  0.25000000  0.34235500  1
  O  O17  1  0.44921850  0.75000000  0.65764500  1
  O  O18  1  0.50235650  0.75000000  0.99912500  1
  O  O19  1  0.49764350  0.25000000  0.00087500  1
  O  O20  1  0.04759850  0.25000000  0.02522600  1
  O  O21  1  0.95240150  0.75000000  0.97477400  1
  O  O22  1  0.75619550  0.93309200  0.17612900  1
  O  O23  1  0.75619550  0.56690800  0.17612900  1
  O  O24  1  0.24380450  0.43309200  0.82387100  1
  O  O25  1  0.24380450  0.06690800  0.82387100  1
