# generated using pymatgen
data_Li4Fe(BO3)2
_symmetry_space_group_name_H-M   'P 1'
_cell_length_a   3.36407996
_cell_length_b   7.84312772
_cell_length_c   9.31011371
_cell_angle_alpha   90.00000000
_cell_angle_beta   90.00000000
_cell_angle_gamma   90.00000000
_symmetry_Int_Tables_number   1
_chemical_formula_structural   Li4Fe(BO3)2
_chemical_formula_sum   'Li8 Fe2 B4 O12'
_cell_volume   245.64650072
_cell_formula_units_Z   2
loop_
 _symmetry_equiv_pos_site_id
 _symmetry_equiv_pos_as_xyz
  1  'x, y, z'
loop_
 _atom_site_type_symbol
 _atom_site_label
 _atom_site_symmetry_multiplicity
 _atom_site_fract_x
 _atom_site_fract_y
 _atom_site_fract_z
 _atom_site_occupancy
  Li  Li0  1  0.50000000  0.17554950  0.55398400  1
  Li  Li1  1  0.00000000  0.67554950  0.94601600  1
  Li  Li2  1  0.00000000  0.32445050  0.05398400  1
  Li  Li3  1  0.50000000  0.82445050  0.44601600  1
  Li  Li4  1  0.00000000  0.00841600  0.69958500  1
  Li  Li5  1  0.50000000  0.50841600  0.80041500  1
  Li  Li6  1  0.50000000  0.49158400  0.19958500  1
  Li  Li7  1  0.00000000  0.99158400  0.30041500  1
  Fe  Fe8  1  0.00000000  0.50000000  0.50000000  1
  Fe  Fe9  1  0.50000000  0.00000000  0.00000000  1
  B  B10  1  0.50000000  0.77011950  0.70163850  1
  B  B11  1  0.00000000  0.27011950  0.79836150  1
  B  B12  1  0.00000000  0.72988050  0.20163850  1
  B  B13  1  0.50000000  0.22988050  0.29836150  1
  O  O14  1  0.50000000  0.62057300  0.61571850  1
  O  O15  1  0.00000000  0.12057300  0.88428150  1
  O  O16  1  0.00000000  0.87942700  0.11571850  1
  O  O17  1  0.50000000  0.37942700  0.38428150  1
  O  O18  1  0.00000000  0.25694650  0.64898800  1
  O  O19  1  0.50000000  0.75694650  0.85101200  1
  O  O20  1  0.50000000  0.24305350  0.14898800  1
  O  O21  1  0.00000000  0.74305350  0.35101200  1
  O  O22  1  0.50000000  0.92589550  0.63585650  1
  O  O23  1  0.00000000  0.42589550  0.86414350  1
  O  O24  1  0.00000000  0.57410450  0.13585650  1
  O  O25  1  0.50000000  0.07410450  0.36414350  1
