# generated using pymatgen
data_Li4Cu3SbO8
_symmetry_space_group_name_H-M   'P 1'
_cell_length_a   6.03023017
_cell_length_b   6.03023017
_cell_length_c   14.58339087
_cell_angle_alpha   90.00000000
_cell_angle_beta   90.00000000
_cell_angle_gamma   120.00000000
_symmetry_Int_Tables_number   1
_chemical_formula_structural   Li4Cu3SbO8
_chemical_formula_sum   'Li12 Cu9 Sb3 O24'
_cell_volume   459.25820807
_cell_formula_units_Z   3
loop_
 _symmetry_equiv_pos_site_id
 _symmetry_equiv_pos_as_xyz
  1  'x, y, z'
loop_
 _atom_site_type_symbol
 _atom_site_label
 _atom_site_symmetry_multiplicity
 _atom_site_fract_x
 _atom_site_fract_y
 _atom_site_fract_z
 _atom_site_occupancy
  Li  Li0  1  0.33333333  0.66666667  0.16666667  1
  Li  Li1  1  0.33333333  0.16666667  0.16666667  1
  Li  Li2  1  0.16666667  0.33333333  0.83333333  1
  Li  Li3  1  0.83333333  0.16666667  0.16666667  1
  Li  Li4  1  1.00000000  1.00000000  0.50000000  1
  Li  Li5  1  0.00000000  0.50000000  0.50000000  1
  Li  Li6  1  0.83333333  0.66666667  0.16666667  1
  Li  Li7  1  0.50000000  0.50000000  0.50000000  1
  Li  Li8  1  0.66666667  0.33333333  0.83333333  1
  Li  Li9  1  0.66666667  0.83333333  0.83333333  1
  Li  Li10  1  0.50000000  0.00000000  0.50000000  1
  Li  Li11  1  0.16666667  0.83333333  0.83333333  1
  Cu  Cu12  1  0.00000000  0.50000000  0.00000000  1
  Cu  Cu13  1  0.16666667  0.33333333  0.33333333  1
  Cu  Cu14  1  0.50000000  0.50000000  0.00000000  1
  Cu  Cu15  1  0.66666667  0.83333333  0.33333333  1
  Cu  Cu16  1  0.83333333  0.66666667  0.66666667  1
  Cu  Cu17  1  0.16666667  0.83333333  0.33333333  1
  Cu  Cu18  1  0.33333333  0.16666667  0.66666667  1
  Cu  Cu19  1  0.50000000  0.00000000  0.00000000  1
  Cu  Cu20  1  0.83333333  0.16666667  0.66666667  1
  Sb  Sb21  1  0.00000000  0.00000000  0.00000000  1
  Sb  Sb22  1  0.66666667  0.33333333  0.33333333  1
  Sb  Sb23  1  0.33333333  0.66666667  0.66666667  1
  O  O24  1  0.33333333  0.66666667  0.39967467  1
  O  O25  1  0.68785200  0.84392600  0.08072400  1
  O  O26  1  0.15607400  0.31214800  0.08072400  1
  O  O27  1  0.33333333  0.66666667  0.93365867  1
  O  O28  1  0.15607400  0.84392600  0.08072400  1
  O  O29  1  0.97881467  0.48940733  0.25260933  1
  O  O30  1  0.51059267  0.02118533  0.25260933  1
  O  O31  1  0.51059267  0.48940733  0.25260933  1
  O  O32  1  0.00000000  0.00000000  0.73300800  1
  O  O33  1  0.35451867  0.17725933  0.41405733  1
  O  O34  1  0.82274067  0.64548133  0.41405733  1
  O  O35  1  0.00000000  0.00000000  0.26699200  1
  O  O36  1  0.82274067  0.17725933  0.41405733  1
  O  O37  1  0.64548133  0.82274067  0.58594267  1
  O  O38  1  0.17725933  0.35451867  0.58594267  1
  O  O39  1  0.17725933  0.82274067  0.58594267  1
  O  O40  1  0.66666667  0.33333333  0.06634133  1
  O  O41  1  0.02118533  0.51059267  0.74739067  1
  O  O42  1  0.48940733  0.97881467  0.74739067  1
  O  O43  1  0.66666667  0.33333333  0.60032533  1
  O  O44  1  0.48940733  0.51059267  0.74739067  1
  O  O45  1  0.31214800  0.15607400  0.91927600  1
  O  O46  1  0.84392600  0.68785200  0.91927600  1
  O  O47  1  0.84392600  0.15607400  0.91927600  1
