# generated using pymatgen
data_Ni(TeO3)4
_symmetry_space_group_name_H-M   'P 1'
_cell_length_a   5.13767754
_cell_length_b   5.57651100
_cell_length_c   7.63662562
_cell_angle_alpha   84.92975101
_cell_angle_beta   89.70523378
_cell_angle_gamma   89.50088671
_symmetry_Int_Tables_number   1
_chemical_formula_structural   Ni(TeO3)4
_chemical_formula_sum   'Ni1 Te4 O12'
_cell_volume   217.92524853
_cell_formula_units_Z   1
loop_
 _symmetry_equiv_pos_site_id
 _symmetry_equiv_pos_as_xyz
  1  'x, y, z'
loop_
 _atom_site_type_symbol
 _atom_site_label
 _atom_site_symmetry_multiplicity
 _atom_site_fract_x
 _atom_site_fract_y
 _atom_site_fract_z
 _atom_site_occupancy
  Ni  Ni0  1  0.99302275  0.59378300  0.28782725  1
  Te  Te1  1  0.00297150  0.98490550  0.98274175  1
  Te  Te2  1  0.50405775  0.47106550  0.50183950  1
  Te  Te3  1  0.01486050  0.99799300  0.50800500  1
  Te  Te4  1  0.49305750  0.47225700  0.98584950  1
  O  O5  1  0.68657700  0.75330650  0.41562575  1
  O  O6  1  0.86758900  0.99199700  0.74984050  1
  O  O7  1  0.69538850  0.17554000  0.05522250  1
  O  O8  1  0.81529175  0.30338000  0.41796975  1
  O  O9  1  0.19417800  0.28255500  0.91626600  1
  O  O10  1  0.63115600  0.48605500  0.74282800  1
  O  O11  1  0.35658350  0.45471850  0.23127025  1
  O  O12  1  0.80307800  0.66147350  0.05040475  1
  O  O13  1  0.17640550  0.62348900  0.52824150  1
  O  O14  1  0.29951350  0.77235450  0.91081375  1
  O  O15  1  0.11214275  0.93823300  0.22046675  1
  O  O16  1  0.35412400  0.15549300  0.55408800  1
