# generated using pymatgen
data_Li2FeSiO4
_symmetry_space_group_name_H-M   'P 1'
_cell_length_a   7.44031700
_cell_length_b   7.84343702
_cell_length_c   6.22604751
_cell_angle_alpha   90.00000000
_cell_angle_beta   90.00000000
_cell_angle_gamma   90.00000000
_symmetry_Int_Tables_number   1
_chemical_formula_structural   Li2FeSiO4
_chemical_formula_sum   'Li8 Fe4 Si4 O16'
_cell_volume   363.33754991
_cell_formula_units_Z   4
loop_
 _symmetry_equiv_pos_site_id
 _symmetry_equiv_pos_as_xyz
  1  'x, y, z'
loop_
 _atom_site_type_symbol
 _atom_site_label
 _atom_site_symmetry_multiplicity
 _atom_site_fract_x
 _atom_site_fract_y
 _atom_site_fract_z
 _atom_site_occupancy
  Li  Li0  1  0.32577575  0.00000000  0.50000000  1
  Li  Li1  1  0.67422425  0.00000000  0.00000000  1
  Li  Li2  1  0.50000000  0.69001250  0.75000000  1
  Li  Li3  1  0.50000000  0.30998750  0.25000000  1
  Li  Li4  1  0.82577575  0.50000000  0.50000000  1
  Li  Li5  1  0.17422425  0.50000000  0.00000000  1
  Li  Li6  1  0.00000000  0.19001250  0.75000000  1
  Li  Li7  1  0.00000000  0.80998750  0.25000000  1
  Fe  Fe8  1  0.50000000  0.67820825  0.25000000  1
  Fe  Fe9  1  0.50000000  0.32179175  0.75000000  1
  Fe  Fe10  1  0.00000000  0.17820825  0.25000000  1
  Fe  Fe11  1  0.00000000  0.82179175  0.75000000  1
  Si  Si12  1  0.32042375  0.00000000  0.00000000  1
  Si  Si13  1  0.67957625  0.00000000  0.50000000  1
  Si  Si14  1  0.82042375  0.50000000  0.00000000  1
  Si  Si15  1  0.17957625  0.50000000  0.50000000  1
  O  O16  1  0.19527100  0.99462025  0.21993275  1
  O  O17  1  0.19527100  0.00537975  0.78006725  1
  O  O18  1  0.80472900  0.00537975  0.71993275  1
  O  O19  1  0.80472900  0.99462025  0.28006725  1
  O  O20  1  0.45695475  0.83335100  0.99840225  1
  O  O21  1  0.45695475  0.16664900  0.00159775  1
  O  O22  1  0.54304525  0.83335100  0.50159775  1
  O  O23  1  0.54304525  0.16664900  0.49840225  1
  O  O24  1  0.69527100  0.49462025  0.21993275  1
  O  O25  1  0.69527100  0.50537975  0.78006725  1
  O  O26  1  0.30472900  0.50537975  0.71993275  1
  O  O27  1  0.30472900  0.49462025  0.28006725  1
  O  O28  1  0.95695475  0.33335100  0.99840225  1
  O  O29  1  0.95695475  0.66664900  0.00159775  1
  O  O30  1  0.04304525  0.33335100  0.50159775  1
  O  O31  1  0.04304525  0.66664900  0.49840225  1
