# generated using pymatgen
data_Mn3OF5
_symmetry_space_group_name_H-M   'P 1'
_cell_length_a   6.96456700
_cell_length_b   3.22821600
_cell_length_c   10.97636220
_cell_angle_alpha   90.00000000
_cell_angle_beta   108.29537667
_cell_angle_gamma   90.00000000
_symmetry_Int_Tables_number   1
_chemical_formula_structural   Mn3OF5
_chemical_formula_sum   'Mn6 O2 F10'
_cell_volume   234.30826383
_cell_formula_units_Z   2
loop_
 _symmetry_equiv_pos_site_id
 _symmetry_equiv_pos_as_xyz
  1  'x, y, z'
loop_
 _atom_site_type_symbol
 _atom_site_label
 _atom_site_symmetry_multiplicity
 _atom_site_fract_x
 _atom_site_fract_y
 _atom_site_fract_z
 _atom_site_occupancy
  Mn  Mn0  1  0.98039000  0.00000000  0.99375300  1
  Mn  Mn1  1  0.16547900  0.50000000  0.33032500  1
  Mn  Mn2  1  0.52272100  0.50000000  0.00583600  1
  Mn  Mn3  1  0.33469000  0.00000000  0.66948600  1
  Mn  Mn4  1  0.67490100  0.00000000  0.35052100  1
  Mn  Mn5  1  0.82770500  0.50000000  0.65391700  1
  O  O6  1  0.69218100  0.00000000  0.00214900  1
  O  O7  1  0.73380100  0.50000000  0.46729700  1
  F  F8  1  0.06709700  0.50000000  0.12405500  1
  F  F9  1  0.96853500  0.00000000  0.32910300  1
  F  F10  1  0.30928800  0.00000000  0.00204600  1
  F  F11  1  0.63919100  0.00000000  0.66687500  1
  F  F12  1  0.26831600  0.50000000  0.53587800  1
  F  F13  1  0.60585900  0.50000000  0.21807600  1
  F  F14  1  0.39225500  0.50000000  0.79943900  1
  F  F15  1  0.02689100  0.00000000  0.66576100  1
  F  F16  1  0.36089100  0.00000000  0.32971600  1
  F  F17  1  0.92981000  0.50000000  0.85576800  1
