# generated using pymatgen
data_Li4Ti3Fe2Ni3O16
_symmetry_space_group_name_H-M   'P 1'
_cell_length_a   10.22807200
_cell_length_b   5.78861400
_cell_length_c   9.54771771
_cell_angle_alpha   90.00000000
_cell_angle_beta   93.08199940
_cell_angle_gamma   90.00000000
_symmetry_Int_Tables_number   1
_chemical_formula_structural   Li4Ti3Fe2Ni3O16
_chemical_formula_sum   'Li8 Ti6 Fe4 Ni6 O32'
_cell_volume   564.46799662
_cell_formula_units_Z   2
loop_
 _symmetry_equiv_pos_site_id
 _symmetry_equiv_pos_as_xyz
  1  'x, y, z'
loop_
 _atom_site_type_symbol
 _atom_site_label
 _atom_site_symmetry_multiplicity
 _atom_site_fract_x
 _atom_site_fract_y
 _atom_site_fract_z
 _atom_site_occupancy
  Li  Li0  1  0.66921800  0.00000000  0.89582100  1
  Li  Li1  1  0.98373100  0.00000000  0.99157500  1
  Li  Li2  1  0.99259500  0.00000000  0.49557200  1
  Li  Li3  1  0.84045000  0.50000000  0.39887600  1
  Li  Li4  1  0.16921800  0.50000000  0.89582100  1
  Li  Li5  1  0.48373100  0.50000000  0.99157500  1
  Li  Li6  1  0.49259500  0.50000000  0.49557200  1
  Li  Li7  1  0.34045000  0.00000000  0.39887600  1
  Ti  Ti8  1  0.58951900  0.24871300  0.21740600  1
  Ti  Ti9  1  0.58951900  0.75128700  0.21740600  1
  Ti  Ti10  1  0.66783100  0.50000000  0.70999200  1
  Ti  Ti11  1  0.08951900  0.74871300  0.21740600  1
  Ti  Ti12  1  0.08951900  0.25128700  0.21740600  1
  Ti  Ti13  1  0.16783100  0.00000000  0.70999200  1
  Fe  Fe14  1  0.66947300  0.00000000  0.49474200  1
  Fe  Fe15  1  0.83424600  0.50000000  0.98347200  1
  Fe  Fe16  1  0.16947300  0.50000000  0.49474200  1
  Fe  Fe17  1  0.33424600  0.00000000  0.98347200  1
  Ni  Ni18  1  0.82718200  0.00000000  0.20808300  1
  Ni  Ni19  1  0.91692700  0.74699900  0.71401700  1
  Ni  Ni20  1  0.91692700  0.25300100  0.71401700  1
  Ni  Ni21  1  0.32718200  0.50000000  0.20808300  1
  Ni  Ni22  1  0.41692700  0.24699900  0.71401700  1
  Ni  Ni23  1  0.41692700  0.75300100  0.71401700  1
  O  O24  1  0.59401100  0.25864500  0.59838300  1
  O  O25  1  0.51939300  0.00000000  0.33503000  1
  O  O26  1  0.65791500  0.00000000  0.10341300  1
  O  O27  1  0.99562400  0.00000000  0.30594800  1
  O  O28  1  0.50157200  0.50000000  0.80719000  1
  O  O29  1  0.59401100  0.74135500  0.59838300  1
  O  O30  1  0.73668200  0.22975300  0.34091900  1
  O  O31  1  0.73668200  0.77024700  0.34091900  1
  O  O32  1  0.65677500  0.50000000  0.10319100  1
  O  O33  1  0.84246300  0.00000000  0.60327300  1
  O  O34  1  0.75810900  0.71573100  0.84905500  1
  O  O35  1  0.75810900  0.28426900  0.84905500  1
  O  O36  1  0.83684800  0.50000000  0.61207000  1
  O  O37  1  0.91649250  0.74336750  0.09441500  1
  O  O38  1  0.98401500  0.50000000  0.83116300  1
  O  O39  1  0.91649250  0.25663250  0.09441500  1
  O  O40  1  0.09401100  0.75864500  0.59838300  1
  O  O41  1  0.01939300  0.50000000  0.33503000  1
  O  O42  1  0.15791500  0.50000000  0.10341300  1
  O  O43  1  0.49562400  0.50000000  0.30594800  1
  O  O44  1  0.00157200  0.00000000  0.80719000  1
  O  O45  1  0.09401100  0.24135500  0.59838300  1
  O  O46  1  0.23668200  0.72975300  0.34091900  1
  O  O47  1  0.23668200  0.27024700  0.34091900  1
  O  O48  1  0.15677500  0.00000000  0.10319100  1
  O  O49  1  0.34246300  0.50000000  0.60327300  1
  O  O50  1  0.25810900  0.21573100  0.84905500  1
  O  O51  1  0.25810900  0.78426900  0.84905500  1
  O  O52  1  0.33684800  0.00000000  0.61207000  1
  O  O53  1  0.41649250  0.24336750  0.09441500  1
  O  O54  1  0.48401500  0.00000000  0.83116300  1
  O  O55  1  0.41649250  0.75663250  0.09441500  1
