# generated using pymatgen
data_LiCuCSO7
_symmetry_space_group_name_H-M   'P 1'
_cell_length_a   5.16277000
_cell_length_b   6.20733500
_cell_length_c   8.91677926
_cell_angle_alpha   90.00000000
_cell_angle_beta   93.40759664
_cell_angle_gamma   90.00000000
_symmetry_Int_Tables_number   1
_chemical_formula_structural   LiCuCSO7
_chemical_formula_sum   'Li2 Cu2 C2 S2 O14'
_cell_volume   285.25117767
_cell_formula_units_Z   2
loop_
 _symmetry_equiv_pos_site_id
 _symmetry_equiv_pos_as_xyz
  1  'x, y, z'
loop_
 _atom_site_type_symbol
 _atom_site_label
 _atom_site_symmetry_multiplicity
 _atom_site_fract_x
 _atom_site_fract_y
 _atom_site_fract_z
 _atom_site_occupancy
  Li  Li0  1  0.76775100  0.49837700  0.21204400  1
  Li  Li1  1  0.23224900  0.99837700  0.78795600  1
  Cu  Cu2  1  0.22631800  0.75413000  0.34986100  1
  Cu  Cu3  1  0.77368200  0.25413000  0.65013900  1
  C  C4  1  0.27372500  0.74356500  0.07136700  1
  C  C5  1  0.72627500  0.24356500  0.92863300  1
  S  S6  1  0.27846400  0.25134800  0.42595200  1
  S  S7  1  0.72153600  0.75134800  0.57404800  1
  O  O8  1  0.70220300  0.27131600  0.06630700  1
  O  O9  1  0.05029500  0.73787700  0.13200600  1
  O  O10  1  0.47327100  0.72400300  0.16836300  1
  O  O11  1  0.20828200  0.06592200  0.32606500  1
  O  O12  1  0.17193000  0.44006200  0.33717900  1
  O  O13  1  0.83586900  0.73756800  0.42658300  1
  O  O14  1  0.56699600  0.27368100  0.44826100  1
  O  O15  1  0.43300400  0.77368100  0.55173900  1
  O  O16  1  0.16413100  0.23756800  0.57341700  1
  O  O17  1  0.82807000  0.94006200  0.66282100  1
  O  O18  1  0.79171800  0.56592200  0.67393500  1
  O  O19  1  0.52672900  0.22400300  0.83163700  1
  O  O20  1  0.94970500  0.23787700  0.86799400  1
  O  O21  1  0.29779700  0.77131600  0.93369300  1
