# generated using pymatgen
data_CrFe5(PO4)6
_symmetry_space_group_name_H-M   'P 1'
_cell_length_a   8.63395204
_cell_length_b   8.63395204
_cell_length_c   20.39594257
_cell_angle_alpha   90.00000000
_cell_angle_beta   90.00000000
_cell_angle_gamma   120.00000000
_symmetry_Int_Tables_number   1
_chemical_formula_structural   CrFe5(PO4)6
_chemical_formula_sum   'Cr3 Fe15 P18 O72'
_cell_volume   1316.72073746
_cell_formula_units_Z   3
loop_
 _symmetry_equiv_pos_site_id
 _symmetry_equiv_pos_as_xyz
  1  'x, y, z'
loop_
 _atom_site_type_symbol
 _atom_site_label
 _atom_site_symmetry_multiplicity
 _atom_site_fract_x
 _atom_site_fract_y
 _atom_site_fract_z
 _atom_site_occupancy
  Cr  Cr0  1  0.33333333  0.66666667  0.80890167  1
  Cr  Cr1  1  0.00000000  0.00000000  0.14223500  1
  Cr  Cr2  1  0.66666667  0.33333333  0.47556833  1
  Fe  Fe3  1  0.33333333  0.66666667  0.66482067  1
  Fe  Fe4  1  0.33333333  0.66666667  0.31307367  1
  Fe  Fe5  1  0.33333333  0.66666667  0.16717167  1
  Fe  Fe6  1  0.33333333  0.66666667  0.52037367  1
  Fe  Fe7  1  0.33333333  0.66666667  0.02064767  1
  Fe  Fe8  1  0.00000000  0.00000000  0.99815400  1
  Fe  Fe9  1  0.00000000  0.00000000  0.64640700  1
  Fe  Fe10  1  0.00000000  0.00000000  0.50050500  1
  Fe  Fe11  1  0.00000000  0.00000000  0.85370700  1
  Fe  Fe12  1  0.00000000  0.00000000  0.35398100  1
  Fe  Fe13  1  0.66666667  0.33333333  0.33148733  1
  Fe  Fe14  1  0.66666667  0.33333333  0.97974033  1
  Fe  Fe15  1  0.66666667  0.33333333  0.83383833  1
  Fe  Fe16  1  0.66666667  0.33333333  0.18704033  1
  Fe  Fe17  1  0.66666667  0.33333333  0.68731433  1
  P  P18  1  0.70420133  0.70530867  0.24958267  1
  P  P19  1  0.29469133  0.99889267  0.24958267  1
  P  P20  1  0.00110733  0.29579867  0.24958267  1
  P  P21  1  0.66700267  0.03563233  0.08396033  1
  P  P22  1  0.36862967  0.33299733  0.08396033  1
  P  P23  1  0.96436767  0.63137033  0.08396033  1
  P  P24  1  0.37086800  0.03864200  0.58291600  1
  P  P25  1  0.96135800  0.33222600  0.58291600  1
  P  P26  1  0.66777400  0.62913200  0.58291600  1
  P  P27  1  0.33366933  0.36896567  0.41729367  1
  P  P28  1  0.03529633  0.66633067  0.41729367  1
  P  P29  1  0.63103433  0.96470367  0.41729367  1
  P  P30  1  0.03753467  0.37197533  0.91624933  1
  P  P31  1  0.62802467  0.66555933  0.91624933  1
  P  P32  1  0.33444067  0.96246533  0.91624933  1
  P  P33  1  0.00033600  0.70229900  0.75062700  1
  P  P34  1  0.70196300  0.99966400  0.75062700  1
  P  P35  1  0.29770100  0.29803700  0.75062700  1
  O  O36  1  0.52559367  0.65398733  0.97861233  1
  O  O37  1  0.34601267  0.87160633  0.97861233  1
  O  O38  1  0.12839367  0.47440633  0.97861233  1
  O  O39  1  0.67952600  0.51282900  0.26092300  1
  O  O40  1  0.80628233  0.79763567  0.18810067  1
  O  O41  1  0.51093300  0.67773700  0.23878600  1
  O  O42  1  0.48717100  0.16669700  0.26092300  1
  O  O43  1  0.32226300  0.83319600  0.23878600  1
  O  O44  1  0.67882633  0.14006967  0.14553667  1
  O  O45  1  0.16680400  0.48906700  0.23878600  1
  O  O46  1  0.83379367  0.01016533  0.07255433  1
  O  O47  1  0.46124333  0.32117367  0.14553667  1
  O  O48  1  0.20236433  0.00864667  0.18810067  1
  O  O49  1  0.83330300  0.32047400  0.26092300  1
  O  O50  1  0.50081867  0.84388933  0.09501833  1
  O  O51  1  0.99135333  0.19371767  0.18810067  1
  O  O52  1  0.34307067  0.49918133  0.09501833  1
  O  O53  1  0.17637167  0.16620633  0.07255433  1
  O  O54  1  0.15611067  0.65692933  0.09501833  1
  O  O55  1  0.85993033  0.53875667  0.14553667  1
  O  O56  1  0.98983467  0.82362833  0.07255433  1
  O  O57  1  0.53749333  0.86247167  0.35526367  1
  O  O58  1  0.32497833  0.46250667  0.35526367  1
  O  O59  1  0.13752833  0.67502167  0.35526367  1
  O  O60  1  0.19226033  0.98732067  0.31194567  1
  O  O61  1  0.01267933  0.20493967  0.31194567  1
  O  O62  1  0.79506033  0.80773967  0.31194567  1
  O  O63  1  0.34619267  0.84616233  0.59425633  1
  O  O64  1  0.47294900  0.13096900  0.52143400  1
  O  O65  1  0.17759967  0.01107033  0.57211933  1
  O  O66  1  0.15383767  0.50003033  0.59425633  1
  O  O67  1  0.98892967  0.16652933  0.57211933  1
  O  O68  1  0.34549300  0.47340300  0.47887000  1
  O  O69  1  0.83347067  0.82240033  0.57211933  1
  O  O70  1  0.50046033  0.34349867  0.40588767  1
  O  O71  1  0.12791000  0.65450700  0.47887000  1
  O  O72  1  0.86903100  0.34198000  0.52143400  1
  O  O73  1  0.49996967  0.65380733  0.59425633  1
  O  O74  1  0.16748533  0.17722267  0.42835167  1
  O  O75  1  0.65802000  0.52705100  0.52143400  1
  O  O76  1  0.00973733  0.83251467  0.42835167  1
  O  O77  1  0.84303833  0.49953967  0.40588767  1
  O  O78  1  0.82277733  0.99026267  0.42835167  1
  O  O79  1  0.52659700  0.87209000  0.47887000  1
  O  O80  1  0.65650133  0.15696167  0.40588767  1
  O  O81  1  0.20416000  0.19580500  0.68859700  1
  O  O82  1  0.99164500  0.79584000  0.68859700  1
  O  O83  1  0.80419500  0.00835500  0.68859700  1
  O  O84  1  0.85892700  0.32065400  0.64527900  1
  O  O85  1  0.67934600  0.53827300  0.64527900  1
  O  O86  1  0.46172700  0.14107300  0.64527900  1
  O  O87  1  0.01285933  0.17949567  0.92758967  1
  O  O88  1  0.13961567  0.46430233  0.85476733  1
  O  O89  1  0.84426633  0.34440367  0.90545267  1
  O  O90  1  0.82050433  0.83336367  0.92758967  1
  O  O91  1  0.65559633  0.49986267  0.90545267  1
  O  O92  1  0.01215967  0.80673633  0.81220333  1
  O  O93  1  0.50013733  0.15573367  0.90545267  1
  O  O94  1  0.16712700  0.67683200  0.73922100  1
  O  O95  1  0.79457667  0.98784033  0.81220333  1
  O  O96  1  0.53569767  0.67531333  0.85476733  1
  O  O97  1  0.16663633  0.98714067  0.92758967  1
  O  O98  1  0.83415200  0.51055600  0.76168500  1
  O  O99  1  0.32468667  0.86038433  0.85476733  1
  O  O100  1  0.67640400  0.16584800  0.76168500  1
  O  O101  1  0.50970500  0.83287300  0.73922100  1
  O  O102  1  0.48944400  0.32359600  0.76168500  1
  O  O103  1  0.19326367  0.20542333  0.81220333  1
  O  O104  1  0.32316800  0.49029500  0.73922100  1
  O  O105  1  0.87082667  0.52913833  0.02193033  1
  O  O106  1  0.65831167  0.12917333  0.02193033  1
  O  O107  1  0.47086167  0.34168833  0.02193033  1
