# generated using pymatgen
data_LiMnOF2
_symmetry_space_group_name_H-M   'P 1'
_cell_length_a   8.90124200
_cell_length_b   5.25280200
_cell_length_c   12.54967217
_cell_angle_alpha   90.00000000
_cell_angle_beta   130.62053713
_cell_angle_gamma   90.00000000
_symmetry_Int_Tables_number   1
_chemical_formula_structural   LiMnOF2
_chemical_formula_sum   'Li8 Mn8 O8 F16'
_cell_volume   445.38699934
_cell_formula_units_Z   8
loop_
 _symmetry_equiv_pos_site_id
 _symmetry_equiv_pos_as_xyz
  1  'x, y, z'
loop_
 _atom_site_type_symbol
 _atom_site_label
 _atom_site_symmetry_multiplicity
 _atom_site_fract_x
 _atom_site_fract_y
 _atom_site_fract_z
 _atom_site_occupancy
  Li  Li0  1  0.82426500  0.91955200  0.99740700  1
  Li  Li1  1  0.94880000  0.90744400  0.78736500  1
  Li  Li2  1  0.94880000  0.09255600  0.28736500  1
  Li  Li3  1  0.82426500  0.08044800  0.49740700  1
  Li  Li4  1  0.64124000  0.41606200  0.99496800  1
  Li  Li5  1  0.14225900  0.40794400  0.80027500  1
  Li  Li6  1  0.14225900  0.59205600  0.30027500  1
  Li  Li7  1  0.64124000  0.58393800  0.49496800  1
  Mn  Mn8  1  0.32605200  0.91867500  0.80985500  1
  Mn  Mn9  1  0.43118700  0.96087300  0.57766900  1
  Mn  Mn10  1  0.43118700  0.03912700  0.07766900  1
  Mn  Mn11  1  0.32605200  0.08132500  0.30985500  1
  Mn  Mn12  1  0.78607300  0.39968000  0.80264400  1
  Mn  Mn13  1  0.23573700  0.39773500  0.56794900  1
  Mn  Mn14  1  0.23573700  0.60226500  0.06794900  1
  Mn  Mn15  1  0.78607300  0.60032000  0.30264400  1
  O  O16  1  0.42365400  0.81361200  0.43435300  1
  O  O17  1  0.25589000  0.76845600  0.93999700  1
  O  O18  1  0.34908200  0.90332700  0.17560900  1
  O  O19  1  0.70639600  0.89145300  0.20287900  1
  O  O20  1  0.70639600  0.10854700  0.70287900  1
  O  O21  1  0.34908200  0.09667300  0.67560900  1
  O  O22  1  0.25589000  0.23154400  0.43999700  1
  O  O23  1  0.42365400  0.18638800  0.93435300  1
  F  F24  1  0.58450400  0.75033800  0.92391000  1
  F  F25  1  0.04878200  0.92931600  0.19885200  1
  F  F26  1  0.04878200  0.07068400  0.69885200  1
  F  F27  1  0.58450400  0.24966200  0.42391000  1
  F  F28  1  0.77352500  0.26220400  0.93998700  1
  F  F29  1  0.92034500  0.28904000  0.42742900  1
  F  F30  1  0.11126200  0.30048500  0.93981200  1
  F  F31  1  0.51105400  0.38626400  0.17266500  1
  F  F32  1  0.85596300  0.43216000  0.19616100  1
  F  F33  1  0.21271400  0.41033000  0.19899500  1
  F  F34  1  0.21271400  0.58967000  0.69899500  1
  F  F35  1  0.85596300  0.56784000  0.69616100  1
  F  F36  1  0.51105400  0.61373600  0.67266500  1
  F  F37  1  0.11126200  0.69951500  0.43981200  1
  F  F38  1  0.92034500  0.71096000  0.92742900  1
  F  F39  1  0.77352500  0.73779600  0.43998700  1
