# generated using pymatgen
data_Li4Ti3V2Ni3O16
_symmetry_space_group_name_H-M   'P 1'
_cell_length_a   10.27984600
_cell_length_b   5.89765400
_cell_length_c   9.57950931
_cell_angle_alpha   90.00000000
_cell_angle_beta   90.08802952
_cell_angle_gamma   90.00000000
_symmetry_Int_Tables_number   1
_chemical_formula_structural   Li4Ti3V2Ni3O16
_chemical_formula_sum   'Li8 Ti6 V4 Ni6 O32'
_cell_volume   580.77598462
_cell_formula_units_Z   2
loop_
 _symmetry_equiv_pos_site_id
 _symmetry_equiv_pos_as_xyz
  1  'x, y, z'
loop_
 _atom_site_type_symbol
 _atom_site_label
 _atom_site_symmetry_multiplicity
 _atom_site_fract_x
 _atom_site_fract_y
 _atom_site_fract_z
 _atom_site_occupancy
  Li  Li0  1  0.66753100  0.00000000  0.90272300  1
  Li  Li1  1  0.99390200  0.00000000  0.98496300  1
  Li  Li2  1  0.99851300  0.00000000  0.49595300  1
  Li  Li3  1  0.83610600  0.50000000  0.40533200  1
  Li  Li4  1  0.16753100  0.50000000  0.90272300  1
  Li  Li5  1  0.49390200  0.50000000  0.98496300  1
  Li  Li6  1  0.49851300  0.50000000  0.49595300  1
  Li  Li7  1  0.33610600  0.00000000  0.40533200  1
  Ti  Ti8  1  0.59782250  0.24857350  0.22245700  1
  Ti  Ti9  1  0.59782250  0.75142650  0.22245700  1
  Ti  Ti10  1  0.68197900  0.50000000  0.73640700  1
  Ti  Ti11  1  0.09782250  0.74857350  0.22245700  1
  Ti  Ti12  1  0.09782250  0.25142650  0.22245700  1
  Ti  Ti13  1  0.18197900  0.00000000  0.73640700  1
  V  V14  1  0.66589600  0.00000000  0.50240500  1
  V  V15  1  0.85548100  0.50000000  0.98647800  1
  V  V16  1  0.16589600  0.50000000  0.50240500  1
  V  V17  1  0.35548100  0.00000000  0.98647800  1
  Ni  Ni18  1  0.82918100  0.00000000  0.20822700  1
  Ni  Ni19  1  0.91277150  0.74526650  0.70809200  1
  Ni  Ni20  1  0.91277150  0.25473350  0.70809200  1
  Ni  Ni21  1  0.32918100  0.50000000  0.20822700  1
  Ni  Ni22  1  0.41277150  0.24526650  0.70809200  1
  Ni  Ni23  1  0.41277150  0.75473350  0.70809200  1
  O  O24  1  0.58879050  0.23370950  0.58583900  1
  O  O25  1  0.51987400  0.00000000  0.33702000  1
  O  O26  1  0.65465600  0.00000000  0.10411800  1
  O  O27  1  0.50101900  0.50000000  0.30400300  1
  O  O28  1  0.50598600  0.50000000  0.79416600  1
  O  O29  1  0.58879050  0.76629050  0.58583900  1
  O  O30  1  0.73581150  0.22634050  0.34376300  1
  O  O31  1  0.73581150  0.77365950  0.34376300  1
  O  O32  1  0.66459500  0.50000000  0.10100100  1
  O  O33  1  0.82205500  0.00000000  0.58267000  1
  O  O34  1  0.75485600  0.71943100  0.85241000  1
  O  O35  1  0.75485600  0.28056900  0.85241000  1
  O  O36  1  0.82070100  0.50000000  0.60542400  1
  O  O37  1  0.91198750  0.73645450  0.08835600  1
  O  O38  1  0.97817200  0.50000000  0.85512400  1
  O  O39  1  0.91198750  0.26354550  0.08835600  1
  O  O40  1  0.08879050  0.73370950  0.58583900  1
  O  O41  1  0.01987400  0.50000000  0.33702000  1
  O  O42  1  0.15465600  0.50000000  0.10411800  1
  O  O43  1  0.00101900  0.00000000  0.30400300  1
  O  O44  1  0.00598600  0.00000000  0.79416600  1
  O  O45  1  0.08879050  0.26629050  0.58583900  1
  O  O46  1  0.23581150  0.72634050  0.34376300  1
  O  O47  1  0.23581150  0.27365950  0.34376300  1
  O  O48  1  0.16459500  0.00000000  0.10100100  1
  O  O49  1  0.32205500  0.50000000  0.58267000  1
  O  O50  1  0.25485600  0.21943100  0.85241000  1
  O  O51  1  0.25485600  0.78056900  0.85241000  1
  O  O52  1  0.32070100  0.00000000  0.60542400  1
  O  O53  1  0.41198750  0.23645450  0.08835600  1
  O  O54  1  0.47817200  0.00000000  0.85512400  1
  O  O55  1  0.41198750  0.76354550  0.08835600  1
