# generated using pymatgen
data_Li2VOF4
_symmetry_space_group_name_H-M   'P 1'
_cell_length_a   10.39142296
_cell_length_b   5.09520517
_cell_length_c   7.06014385
_cell_angle_alpha   90.00000000
_cell_angle_beta   111.15534675
_cell_angle_gamma   90.00000000
_symmetry_Int_Tables_number   1
_chemical_formula_structural   Li2VOF4
_chemical_formula_sum   'Li8 V4 O4 F16'
_cell_volume   348.61666985
_cell_formula_units_Z   4
loop_
 _symmetry_equiv_pos_site_id
 _symmetry_equiv_pos_as_xyz
  1  'x, y, z'
loop_
 _atom_site_type_symbol
 _atom_site_label
 _atom_site_symmetry_multiplicity
 _atom_site_fract_x
 _atom_site_fract_y
 _atom_site_fract_z
 _atom_site_occupancy
  Li  Li0  1  0.35938950  0.99982450  0.25389200  1
  Li  Li1  1  0.35938950  0.00017550  0.75389200  1
  Li  Li2  1  0.14490650  0.50829150  0.24207800  1
  Li  Li3  1  0.14490650  0.49170850  0.74207800  1
  Li  Li4  1  0.85938950  0.49982450  0.25389200  1
  Li  Li5  1  0.85938950  0.50017550  0.75389200  1
  Li  Li6  1  0.64490650  0.00829150  0.24207800  1
  Li  Li7  1  0.64490650  0.99170850  0.74207800  1
  V  V8  1  0.49990650  0.48402750  0.52356300  1
  V  V9  1  0.49990650  0.51597250  0.02356300  1
  V  V10  1  0.99990650  0.98402750  0.52356300  1
  V  V11  1  0.99990650  0.01597250  0.02356300  1
  O  O12  1  0.49832400  0.64839400  0.24564400  1
  O  O13  1  0.49832400  0.35160600  0.74564400  1
  O  O14  1  0.99832400  0.14839400  0.24564400  1
  O  O15  1  0.99832400  0.85160600  0.74564400  1
  F  F16  1  0.41464500  0.17936600  0.03691000  1
  F  F17  1  0.41464500  0.82063400  0.53691000  1
  F  F18  1  0.32239950  0.34322050  0.35235200  1
  F  F19  1  0.17807650  0.84475750  0.13623200  1
  F  F20  1  0.32239950  0.65677950  0.85235200  1
  F  F21  1  0.17807650  0.15524250  0.63623200  1
  F  F22  1  0.08656250  0.67715850  0.45522900  1
  F  F23  1  0.08656250  0.32284150  0.95522900  1
  F  F24  1  0.91464500  0.67936600  0.03691000  1
  F  F25  1  0.91464500  0.32063400  0.53691000  1
  F  F26  1  0.82239950  0.84322050  0.35235200  1
  F  F27  1  0.67807650  0.34475750  0.13623200  1
  F  F28  1  0.82239950  0.15677950  0.85235200  1
  F  F29  1  0.67807650  0.65524250  0.63623200  1
  F  F30  1  0.58656250  0.17715850  0.45522900  1
  F  F31  1  0.58656250  0.82284150  0.95522900  1
