# generated using pymatgen
data_Li4Cu2C4SO16
_symmetry_space_group_name_H-M   'P 1'
_cell_length_a   12.88283600
_cell_length_b   13.18733000
_cell_length_c   13.68139000
_cell_angle_alpha   90.00000000
_cell_angle_beta   90.00000000
_cell_angle_gamma   90.00000000
_symmetry_Int_Tables_number   1
_chemical_formula_structural   Li4Cu2C4SO16
_chemical_formula_sum   'Li32 Cu16 C32 S8 O128'
_cell_volume   2324.33421565
_cell_formula_units_Z   8
loop_
 _symmetry_equiv_pos_site_id
 _symmetry_equiv_pos_as_xyz
  1  'x, y, z'
loop_
 _atom_site_type_symbol
 _atom_site_label
 _atom_site_symmetry_multiplicity
 _atom_site_fract_x
 _atom_site_fract_y
 _atom_site_fract_z
 _atom_site_occupancy
  Li  Li0  1  0.28795400  0.00000000  0.00000000  1
  Li  Li1  1  0.50000000  0.78591500  0.00000000  1
  Li  Li2  1  0.50000000  0.21408500  0.00000000  1
  Li  Li3  1  0.71204600  0.00000000  0.00000000  1
  Li  Li4  1  0.53795400  0.25000000  0.25000000  1
  Li  Li5  1  0.75000000  0.03591500  0.25000000  1
  Li  Li6  1  0.75000000  0.46408500  0.25000000  1
  Li  Li7  1  0.96204600  0.25000000  0.25000000  1
  Li  Li8  1  0.28795400  0.50000000  0.50000000  1
  Li  Li9  1  0.50000000  0.28591500  0.50000000  1
  Li  Li10  1  0.50000000  0.71408500  0.50000000  1
  Li  Li11  1  0.71204600  0.50000000  0.50000000  1
  Li  Li12  1  0.53795400  0.75000000  0.75000000  1
  Li  Li13  1  0.75000000  0.53591500  0.75000000  1
  Li  Li14  1  0.75000000  0.96408500  0.75000000  1
  Li  Li15  1  0.96204600  0.75000000  0.75000000  1
  Li  Li16  1  0.78795400  0.00000000  0.50000000  1
  Li  Li17  1  0.00000000  0.78591500  0.50000000  1
  Li  Li18  1  0.00000000  0.21408500  0.50000000  1
  Li  Li19  1  0.21204600  0.00000000  0.50000000  1
  Li  Li20  1  0.03795400  0.25000000  0.75000000  1
  Li  Li21  1  0.25000000  0.03591500  0.75000000  1
  Li  Li22  1  0.25000000  0.46408500  0.75000000  1
  Li  Li23  1  0.46204600  0.25000000  0.75000000  1
  Li  Li24  1  0.78795400  0.50000000  0.00000000  1
  Li  Li25  1  0.00000000  0.28591500  0.00000000  1
  Li  Li26  1  0.00000000  0.71408500  0.00000000  1
  Li  Li27  1  0.21204600  0.50000000  0.00000000  1
  Li  Li28  1  0.03795400  0.75000000  0.25000000  1
  Li  Li29  1  0.25000000  0.53591500  0.25000000  1
  Li  Li30  1  0.25000000  0.96408500  0.25000000  1
  Li  Li31  1  0.46204600  0.75000000  0.25000000  1
  Cu  Cu32  1  0.87500000  0.62500000  0.37500000  1
  Cu  Cu33  1  0.62500000  0.87500000  0.37500000  1
  Cu  Cu34  1  0.62500000  0.62500000  0.12500000  1
  Cu  Cu35  1  0.87500000  0.87500000  0.12500000  1
  Cu  Cu36  1  0.87500000  0.12500000  0.87500000  1
  Cu  Cu37  1  0.62500000  0.37500000  0.87500000  1
  Cu  Cu38  1  0.62500000  0.12500000  0.62500000  1
  Cu  Cu39  1  0.87500000  0.37500000  0.62500000  1
  Cu  Cu40  1  0.37500000  0.62500000  0.87500000  1
  Cu  Cu41  1  0.12500000  0.87500000  0.87500000  1
  Cu  Cu42  1  0.12500000  0.62500000  0.62500000  1
  Cu  Cu43  1  0.37500000  0.87500000  0.62500000  1
  Cu  Cu44  1  0.37500000  0.12500000  0.37500000  1
  Cu  Cu45  1  0.12500000  0.37500000  0.37500000  1
  Cu  Cu46  1  0.12500000  0.12500000  0.12500000  1
  Cu  Cu47  1  0.37500000  0.37500000  0.12500000  1
  C  C48  1  0.59703900  0.09541300  0.40749900  1
  C  C49  1  0.90296100  0.40458700  0.40749900  1
  C  C50  1  0.59703900  0.40458700  0.09250100  1
  C  C51  1  0.90296100  0.09541300  0.09250100  1
  C  C52  1  0.34703900  0.15458700  0.15749900  1
  C  C53  1  0.65296100  0.84541300  0.15749900  1
  C  C54  1  0.84703900  0.84541300  0.34250100  1
  C  C55  1  0.15296100  0.15458700  0.34250100  1
  C  C56  1  0.59703900  0.59541300  0.90749900  1
  C  C57  1  0.90296100  0.90458700  0.90749900  1
  C  C58  1  0.59703900  0.90458700  0.59250100  1
  C  C59  1  0.90296100  0.59541300  0.59250100  1
  C  C60  1  0.34703900  0.65458700  0.65749900  1
  C  C61  1  0.65296100  0.34541300  0.65749900  1
  C  C62  1  0.84703900  0.34541300  0.84250100  1
  C  C63  1  0.15296100  0.65458700  0.84250100  1
  C  C64  1  0.09703900  0.09541300  0.90749900  1
  C  C65  1  0.40296100  0.40458700  0.90749900  1
  C  C66  1  0.09703900  0.40458700  0.59250100  1
  C  C67  1  0.40296100  0.09541300  0.59250100  1
  C  C68  1  0.84703900  0.15458700  0.65749900  1
  C  C69  1  0.15296100  0.84541300  0.65749900  1
  C  C70  1  0.34703900  0.84541300  0.84250100  1
  C  C71  1  0.65296100  0.15458700  0.84250100  1
  C  C72  1  0.09703900  0.59541300  0.40749900  1
  C  C73  1  0.40296100  0.90458700  0.40749900  1
  C  C74  1  0.09703900  0.90458700  0.09250100  1
  C  C75  1  0.40296100  0.59541300  0.09250100  1
  C  C76  1  0.84703900  0.65458700  0.15749900  1
  C  C77  1  0.15296100  0.34541300  0.15749900  1
  C  C78  1  0.34703900  0.34541300  0.34250100  1
  C  C79  1  0.65296100  0.65458700  0.34250100  1
  S  S80  1  0.50000000  0.00000000  0.00000000  1
  S  S81  1  0.75000000  0.25000000  0.25000000  1
  S  S82  1  0.50000000  0.50000000  0.50000000  1
  S  S83  1  0.75000000  0.75000000  0.75000000  1
  S  S84  1  0.00000000  0.00000000  0.50000000  1
  S  S85  1  0.25000000  0.25000000  0.75000000  1
  S  S86  1  0.00000000  0.50000000  0.00000000  1
  S  S87  1  0.25000000  0.75000000  0.25000000  1
  O  O88  1  0.02537450  0.66421800  0.39878450  1
  O  O89  1  0.65852950  0.09648900  0.48135050  1
  O  O90  1  0.97462550  0.33578200  0.39878450  1
  O  O91  1  0.34147050  0.90351100  0.48135050  1
  O  O92  1  0.15852950  0.90351100  0.01864950  1
  O  O93  1  0.85721300  0.77725250  0.40943150  1
  O  O94  1  0.14278700  0.22274750  0.40943150  1
  O  O95  1  0.10721300  0.97274750  0.15943150  1
  O  O96  1  0.52537450  0.33578200  0.10121550  1
  O  O97  1  0.35721300  0.22274750  0.09056850  1
  O  O98  1  0.93134300  0.06692850  0.44063850  1
  O  O99  1  0.81865700  0.31692850  0.19063850  1
  O  O100  1  0.84147050  0.09648900  0.01864950  1
  O  O101  1  0.47462550  0.66421800  0.10121550  1
  O  O102  1  0.06865700  0.93307150  0.44063850  1
  O  O103  1  0.56865700  0.06692850  0.05936150  1
  O  O104  1  0.68134300  0.18307150  0.19063850  1
  O  O105  1  0.68134300  0.31692850  0.30936150  1
  O  O106  1  0.27537450  0.08578200  0.14878450  1
  O  O107  1  0.40852950  0.15351100  0.23135050  1
  O  O108  1  0.43134300  0.93307150  0.05936150  1
  O  O109  1  0.81865700  0.18307150  0.30936150  1
  O  O110  1  0.89278700  0.02725250  0.15943150  1
  O  O111  1  0.72462550  0.91421800  0.14878450  1
  O  O112  1  0.64278700  0.77725250  0.09056850  1
  O  O113  1  0.60721300  0.02725250  0.34056850  1
  O  O114  1  0.39278700  0.97274750  0.34056850  1
  O  O115  1  0.59147050  0.84648900  0.23135050  1
  O  O116  1  0.90852950  0.84648900  0.26864950  1
  O  O117  1  0.77537450  0.91421800  0.35121550  1
  O  O118  1  0.09147050  0.15351100  0.26864950  1
  O  O119  1  0.22462550  0.08578200  0.35121550  1
  O  O120  1  0.02537450  0.16421800  0.89878450  1
  O  O121  1  0.65852950  0.59648900  0.98135050  1
  O  O122  1  0.97462550  0.83578200  0.89878450  1
  O  O123  1  0.34147050  0.40351100  0.98135050  1
  O  O124  1  0.15852950  0.40351100  0.51864950  1
  O  O125  1  0.85721300  0.27725250  0.90943150  1
  O  O126  1  0.14278700  0.72274750  0.90943150  1
  O  O127  1  0.10721300  0.47274750  0.65943150  1
  O  O128  1  0.52537450  0.83578200  0.60121550  1
  O  O129  1  0.35721300  0.72274750  0.59056850  1
  O  O130  1  0.93134300  0.56692850  0.94063850  1
  O  O131  1  0.81865700  0.81692850  0.69063850  1
  O  O132  1  0.84147050  0.59648900  0.51864950  1
  O  O133  1  0.47462550  0.16421800  0.60121550  1
  O  O134  1  0.06865700  0.43307150  0.94063850  1
  O  O135  1  0.56865700  0.56692850  0.55936150  1
  O  O136  1  0.68134300  0.68307150  0.69063850  1
  O  O137  1  0.68134300  0.81692850  0.80936150  1
  O  O138  1  0.27537450  0.58578200  0.64878450  1
  O  O139  1  0.40852950  0.65351100  0.73135050  1
  O  O140  1  0.43134300  0.43307150  0.55936150  1
  O  O141  1  0.81865700  0.68307150  0.80936150  1
  O  O142  1  0.89278700  0.52725250  0.65943150  1
  O  O143  1  0.72462550  0.41421800  0.64878450  1
  O  O144  1  0.64278700  0.27725250  0.59056850  1
  O  O145  1  0.60721300  0.52725250  0.84056850  1
  O  O146  1  0.39278700  0.47274750  0.84056850  1
  O  O147  1  0.59147050  0.34648900  0.73135050  1
  O  O148  1  0.90852950  0.34648900  0.76864950  1
  O  O149  1  0.77537450  0.41421800  0.85121550  1
  O  O150  1  0.09147050  0.65351100  0.76864950  1
  O  O151  1  0.22462550  0.58578200  0.85121550  1
  O  O152  1  0.52537450  0.66421800  0.89878450  1
  O  O153  1  0.15852950  0.09648900  0.98135050  1
  O  O154  1  0.47462550  0.33578200  0.89878450  1
  O  O155  1  0.84147050  0.90351100  0.98135050  1
  O  O156  1  0.65852950  0.90351100  0.51864950  1
  O  O157  1  0.35721300  0.77725250  0.90943150  1
  O  O158  1  0.64278700  0.22274750  0.90943150  1
  O  O159  1  0.60721300  0.97274750  0.65943150  1
  O  O160  1  0.02537450  0.33578200  0.60121550  1
  O  O161  1  0.85721300  0.22274750  0.59056850  1
  O  O162  1  0.43134300  0.06692850  0.94063850  1
  O  O163  1  0.31865700  0.31692850  0.69063850  1
  O  O164  1  0.34147050  0.09648900  0.51864950  1
  O  O165  1  0.97462550  0.66421800  0.60121550  1
  O  O166  1  0.56865700  0.93307150  0.94063850  1
  O  O167  1  0.06865700  0.06692850  0.55936150  1
  O  O168  1  0.18134300  0.18307150  0.69063850  1
  O  O169  1  0.18134300  0.31692850  0.80936150  1
  O  O170  1  0.77537450  0.08578200  0.64878450  1
  O  O171  1  0.90852950  0.15351100  0.73135050  1
  O  O172  1  0.93134300  0.93307150  0.55936150  1
  O  O173  1  0.31865700  0.18307150  0.80936150  1
  O  O174  1  0.39278700  0.02725250  0.65943150  1
  O  O175  1  0.22462550  0.91421800  0.64878450  1
  O  O176  1  0.14278700  0.77725250  0.59056850  1
  O  O177  1  0.10721300  0.02725250  0.84056850  1
  O  O178  1  0.89278700  0.97274750  0.84056850  1
  O  O179  1  0.09147050  0.84648900  0.73135050  1
  O  O180  1  0.40852950  0.84648900  0.76864950  1
  O  O181  1  0.27537450  0.91421800  0.85121550  1
  O  O182  1  0.59147050  0.15351100  0.76864950  1
  O  O183  1  0.72462550  0.08578200  0.85121550  1
  O  O184  1  0.52537450  0.16421800  0.39878450  1
  O  O185  1  0.15852950  0.59648900  0.48135050  1
  O  O186  1  0.47462550  0.83578200  0.39878450  1
  O  O187  1  0.84147050  0.40351100  0.48135050  1
  O  O188  1  0.65852950  0.40351100  0.01864950  1
  O  O189  1  0.35721300  0.27725250  0.40943150  1
  O  O190  1  0.64278700  0.72274750  0.40943150  1
  O  O191  1  0.60721300  0.47274750  0.15943150  1
  O  O192  1  0.02537450  0.83578200  0.10121550  1
  O  O193  1  0.85721300  0.72274750  0.09056850  1
  O  O194  1  0.43134300  0.56692850  0.44063850  1
  O  O195  1  0.31865700  0.81692850  0.19063850  1
  O  O196  1  0.34147050  0.59648900  0.01864950  1
  O  O197  1  0.97462550  0.16421800  0.10121550  1
  O  O198  1  0.56865700  0.43307150  0.44063850  1
  O  O199  1  0.06865700  0.56692850  0.05936150  1
  O  O200  1  0.18134300  0.68307150  0.19063850  1
  O  O201  1  0.18134300  0.81692850  0.30936150  1
  O  O202  1  0.77537450  0.58578200  0.14878450  1
  O  O203  1  0.90852950  0.65351100  0.23135050  1
  O  O204  1  0.93134300  0.43307150  0.05936150  1
  O  O205  1  0.31865700  0.68307150  0.30936150  1
  O  O206  1  0.39278700  0.52725250  0.15943150  1
  O  O207  1  0.22462550  0.41421800  0.14878450  1
  O  O208  1  0.14278700  0.27725250  0.09056850  1
  O  O209  1  0.10721300  0.52725250  0.34056850  1
  O  O210  1  0.89278700  0.47274750  0.34056850  1
  O  O211  1  0.09147050  0.34648900  0.23135050  1
  O  O212  1  0.40852950  0.34648900  0.26864950  1
  O  O213  1  0.27537450  0.41421800  0.35121550  1
  O  O214  1  0.59147050  0.65351100  0.26864950  1
  O  O215  1  0.72462550  0.58578200  0.35121550  1
