# generated using pymatgen
data_Na3Ni2P2(CO7)2
_symmetry_space_group_name_H-M   'P 1'
_cell_length_a   5.17153966
_cell_length_b   6.51292314
_cell_length_c   8.86216649
_cell_angle_alpha   90.92323265
_cell_angle_beta   91.63947970
_cell_angle_gamma   90.02195037
_symmetry_Int_Tables_number   1
_chemical_formula_structural   Na3Ni2P2(CO7)2
_chemical_formula_sum   'Na3 Ni2 P2 C2 O14'
_cell_volume   298.33304367
_cell_formula_units_Z   1
loop_
 _symmetry_equiv_pos_site_id
 _symmetry_equiv_pos_as_xyz
  1  'x, y, z'
loop_
 _atom_site_type_symbol
 _atom_site_label
 _atom_site_symmetry_multiplicity
 _atom_site_fract_x
 _atom_site_fract_y
 _atom_site_fract_z
 _atom_site_occupancy
  Na  Na0  1  0.75538800  0.52621600  0.25586400  1
  Na  Na1  1  0.24697000  0.48762100  0.74478600  1
  Na  Na2  1  0.24616200  0.01426800  0.74649100  1
  Ni  Ni3  1  0.21705200  0.24068700  0.34247400  1
  Ni  Ni4  1  0.77928600  0.74994700  0.65340200  1
  P  P5  1  0.28107500  0.74805000  0.42210700  1
  P  P6  1  0.71985300  0.24831800  0.57340900  1
  C  C7  1  0.28909800  0.25071600  0.07041000  1
  C  C8  1  0.71571800  0.75249100  0.92759900  1
  O  O9  1  0.67852700  0.74924800  0.06501800  1
  O  O10  1  0.06123900  0.24819500  0.12731900  1
  O  O11  1  0.47378300  0.24782200  0.17269600  1
  O  O12  1  0.21497200  0.93336700  0.32397800  1
  O  O13  1  0.21049000  0.55866400  0.32108800  1
  O  O14  1  0.86515200  0.25490400  0.42535700  1
  O  O15  1  0.57530600  0.74020800  0.46521800  1
  O  O16  1  0.42062500  0.24825600  0.53871200  1
  O  O17  1  0.13373600  0.74889500  0.57271400  1
  O  O18  1  0.78792400  0.43647100  0.67774700  1
  O  O19  1  0.79209700  0.06271400  0.67320400  1
  O  O20  1  0.52597700  0.75372900  0.82616200  1
  O  O21  1  0.94308100  0.75394200  0.86832900  1
  O  O22  1  0.32750300  0.25511400  0.93120600  1
