# generated using pymatgen
data_Li2MnCr(PO4)2
_symmetry_space_group_name_H-M   'P 1'
_cell_length_a   4.78364040
_cell_length_b   6.25838500
_cell_length_c   10.42248987
_cell_angle_alpha   90.00000000
_cell_angle_beta   91.46850552
_cell_angle_gamma   90.00000000
_symmetry_Int_Tables_number   1
_chemical_formula_structural   Li2MnCr(PO4)2
_chemical_formula_sum   'Li4 Mn2 Cr2 P4 O16'
_cell_volume   311.92459592
_cell_formula_units_Z   2
loop_
 _symmetry_equiv_pos_site_id
 _symmetry_equiv_pos_as_xyz
  1  'x, y, z'
loop_
 _atom_site_type_symbol
 _atom_site_label
 _atom_site_symmetry_multiplicity
 _atom_site_fract_x
 _atom_site_fract_y
 _atom_site_fract_z
 _atom_site_occupancy
  Li  Li0  1  0.50000000  0.00000000  0.00000000  1
  Li  Li1  1  0.50000000  0.50000000  0.00000000  1
  Li  Li2  1  0.00000000  0.00000000  0.50000000  1
  Li  Li3  1  0.00000000  0.50000000  0.50000000  1
  Mn  Mn4  1  0.47287500  0.25000000  0.71837100  1
  Mn  Mn5  1  0.52712500  0.75000000  0.28162900  1
  Cr  Cr6  1  0.04759700  0.25000000  0.21644100  1
  Cr  Cr7  1  0.95240300  0.75000000  0.78355900  1
  P  P8  1  0.08141800  0.75000000  0.08950000  1
  P  P9  1  0.91858200  0.25000000  0.91050000  1
  P  P10  1  0.59175200  0.25000000  0.40424100  1
  P  P11  1  0.40824800  0.75000000  0.59575900  1
  O  O12  1  0.80359100  0.25000000  0.04960600  1
  O  O13  1  0.19640900  0.75000000  0.95039400  1
  O  O14  1  0.75999500  0.75000000  0.09225600  1
  O  O15  1  0.24000500  0.25000000  0.90774400  1
  O  O16  1  0.26730300  0.25000000  0.39608800  1
  O  O17  1  0.73269700  0.75000000  0.60391200  1
  O  O18  1  0.28986600  0.75000000  0.45528000  1
  O  O19  1  0.71013400  0.25000000  0.54472000  1
  O  O20  1  0.21803900  0.94674900  0.15958000  1
  O  O21  1  0.21803900  0.55325100  0.15958000  1
  O  O22  1  0.78196100  0.44674900  0.84042000  1
  O  O23  1  0.78196100  0.05325100  0.84042000  1
  O  O24  1  0.71897900  0.45072600  0.33778700  1
  O  O25  1  0.71897900  0.04927400  0.33778700  1
  O  O26  1  0.28102100  0.95072600  0.66221300  1
  O  O27  1  0.28102100  0.54927400  0.66221300  1
