# generated using pymatgen
data_Fe(PS3)2
_symmetry_space_group_name_H-M   'P 1'
_cell_length_a   5.87087600
_cell_length_b   10.16950200
_cell_length_c   7.02776619
_cell_angle_alpha   90.00000000
_cell_angle_beta   90.15032915
_cell_angle_gamma   90.00000000
_symmetry_Int_Tables_number   1
_chemical_formula_structural   Fe(PS3)2
_chemical_formula_sum   'Fe2 P4 S12'
_cell_volume   419.58350175
_cell_formula_units_Z   2
loop_
 _symmetry_equiv_pos_site_id
 _symmetry_equiv_pos_as_xyz
  1  'x, y, z'
loop_
 _atom_site_type_symbol
 _atom_site_label
 _atom_site_symmetry_multiplicity
 _atom_site_fract_x
 _atom_site_fract_y
 _atom_site_fract_z
 _atom_site_occupancy
  Fe  Fe0  1  0.00000000  0.32633100  0.50000000  1
  Fe  Fe1  1  0.50000000  0.82633100  0.50000000  1
  P  P2  1  0.49890350  0.49993150  0.65257900  1
  P  P3  1  0.50109650  0.49993150  0.34742100  1
  P  P4  1  0.99890350  0.99993150  0.65257900  1
  P  P5  1  0.00109650  0.99993150  0.34742100  1
  S  S6  1  0.13498550  0.18093850  0.72073700  1
  S  S7  1  0.29599700  0.34297000  0.27788100  1
  S  S8  1  0.16405200  0.47964400  0.72157700  1
  S  S9  1  0.86501450  0.18093850  0.27926300  1
  S  S10  1  0.83594800  0.47964400  0.27842300  1
  S  S11  1  0.70400300  0.34297000  0.72211900  1
  S  S12  1  0.63498550  0.68093850  0.72073700  1
  S  S13  1  0.79599700  0.84297000  0.27788100  1
  S  S14  1  0.66405200  0.97964400  0.72157700  1
  S  S15  1  0.36501450  0.68093850  0.27926300  1
  S  S16  1  0.33594800  0.97964400  0.27842300  1
  S  S17  1  0.20400300  0.84297000  0.72211900  1
