# generated using pymatgen
data_CoH12(ClO3)2
_symmetry_space_group_name_H-M   'P 1'
_cell_length_a   10.43038584
_cell_length_b   7.06983474
_cell_length_c   6.73358345
_cell_angle_alpha   90.00000000
_cell_angle_beta   121.79478336
_cell_angle_gamma   90.00000000
_symmetry_Int_Tables_number   1
_chemical_formula_structural   CoH12(ClO3)2
_chemical_formula_sum   'Co2 H24 Cl4 O12'
_cell_volume   422.03113532
_cell_formula_units_Z   2
loop_
 _symmetry_equiv_pos_site_id
 _symmetry_equiv_pos_as_xyz
  1  'x, y, z'
loop_
 _atom_site_type_symbol
 _atom_site_label
 _atom_site_symmetry_multiplicity
 _atom_site_fract_x
 _atom_site_fract_y
 _atom_site_fract_z
 _atom_site_occupancy
  Co  Co0  1  0.00000000  0.00000000  0.00000000  1
  Co  Co1  1  0.50000000  0.50000000  0.00000000  1
  H  H2  1  0.68617250  0.50000000  0.55276950  1
  H  H3  1  0.31382750  0.50000000  0.44723050  1
  H  H4  1  0.23334725  0.50000000  0.16981800  1
  H  H5  1  0.76665275  0.50000000  0.83018200  1
  H  H6  1  0.10572875  0.69148175  0.27483100  1
  H  H7  1  0.10572875  0.30851825  0.27483100  1
  H  H8  1  0.89427125  0.30851825  0.72516900  1
  H  H9  1  0.89427125  0.69148175  0.72516900  1
  H  H10  1  0.94189200  0.27015100  0.22409700  1
  H  H11  1  0.94189200  0.72984900  0.22409700  1
  H  H12  1  0.05810800  0.72984900  0.77590300  1
  H  H13  1  0.05810800  0.27015100  0.77590300  1
  H  H14  1  0.18617250  0.00000000  0.55276950  1
  H  H15  1  0.81382750  0.00000000  0.44723050  1
  H  H16  1  0.73334725  0.00000000  0.16981800  1
  H  H17  1  0.26665275  0.00000000  0.83018200  1
  H  H18  1  0.60572875  0.19148175  0.27483100  1
  H  H19  1  0.60572875  0.80851825  0.27483100  1
  H  H20  1  0.39427125  0.80851825  0.72516900  1
  H  H21  1  0.39427125  0.19148175  0.72516900  1
  H  H22  1  0.44189200  0.77015100  0.22409700  1
  H  H23  1  0.44189200  0.22984900  0.22409700  1
  H  H24  1  0.55810800  0.22984900  0.77590300  1
  H  H25  1  0.55810800  0.77015100  0.77590300  1
  Cl  Cl26  1  0.77454275  0.50000000  0.15046350  1
  Cl  Cl27  1  0.22545725  0.50000000  0.84953650  1
  Cl  Cl28  1  0.27454275  0.00000000  0.15046350  1
  Cl  Cl29  1  0.72545725  0.00000000  0.84953650  1
  O  O30  1  0.78488975  0.50000000  0.69908550  1
  O  O31  1  0.21511025  0.50000000  0.30091450  1
  O  O32  1  0.03313600  0.79488700  0.24895200  1
  O  O33  1  0.03313600  0.20511300  0.24895200  1
  O  O34  1  0.96686400  0.20511300  0.75104800  1
  O  O35  1  0.96686400  0.79488700  0.75104800  1
  O  O36  1  0.28488975  0.00000000  0.69908550  1
  O  O37  1  0.71511025  0.00000000  0.30091450  1
  O  O38  1  0.53313600  0.29488700  0.24895200  1
  O  O39  1  0.53313600  0.70511300  0.24895200  1
  O  O40  1  0.46686400  0.70511300  0.75104800  1
  O  O41  1  0.46686400  0.29488700  0.75104800  1
