# generated using pymatgen
data_Li2MnCrO4
_symmetry_space_group_name_H-M   'P 1'
_cell_length_a   8.25951693
_cell_length_b   8.25401927
_cell_length_c   6.00123891
_cell_angle_alpha   90.00000000
_cell_angle_beta   132.78300710
_cell_angle_gamma   90.00000000
_symmetry_Int_Tables_number   1
_chemical_formula_structural   Li2MnCrO4
_chemical_formula_sum   'Li8 Mn4 Cr4 O16'
_cell_volume   300.27313430
_cell_formula_units_Z   4
loop_
 _symmetry_equiv_pos_site_id
 _symmetry_equiv_pos_as_xyz
  1  'x, y, z'
loop_
 _atom_site_type_symbol
 _atom_site_label
 _atom_site_symmetry_multiplicity
 _atom_site_fract_x
 _atom_site_fract_y
 _atom_site_fract_z
 _atom_site_occupancy
  Li  Li0  1  0.50000000  0.00000000  0.50000000  1
  Li  Li1  1  0.50000000  0.00000000  0.00000000  1
  Li  Li2  1  0.75000000  0.25000000  0.50000000  1
  Li  Li3  1  0.25000000  0.25000000  0.00000000  1
  Li  Li4  1  0.00000000  0.50000000  0.50000000  1
  Li  Li5  1  0.00000000  0.50000000  0.00000000  1
  Li  Li6  1  0.25000000  0.75000000  0.50000000  1
  Li  Li7  1  0.75000000  0.75000000  0.00000000  1
  Mn  Mn8  1  0.75000000  0.25000000  0.00000000  1
  Mn  Mn9  1  0.25000000  0.25000000  0.50000000  1
  Mn  Mn10  1  0.25000000  0.75000000  0.00000000  1
  Mn  Mn11  1  0.75000000  0.75000000  0.50000000  1
  Cr  Cr12  1  0.00000000  0.00000000  0.00000000  1
  Cr  Cr13  1  0.00000000  0.00000000  0.50000000  1
  Cr  Cr14  1  0.50000000  0.50000000  0.00000000  1
  Cr  Cr15  1  0.50000000  0.50000000  0.50000000  1
  O  O16  1  0.27118500  0.50989100  0.03330600  1
  O  O17  1  0.22881500  0.00989100  0.46669400  1
  O  O18  1  0.27118500  0.49010900  0.53330600  1
  O  O19  1  0.22881500  0.99010900  0.96669400  1
  O  O20  1  0.02044100  0.24458100  0.51359700  1
  O  O21  1  0.97955900  0.24458100  0.98640300  1
  O  O22  1  0.52044100  0.25541900  0.01359700  1
  O  O23  1  0.47955900  0.25541900  0.48640300  1
  O  O24  1  0.77118500  0.00989100  0.03330600  1
  O  O25  1  0.72881500  0.50989100  0.46669400  1
  O  O26  1  0.77118500  0.99010900  0.53330600  1
  O  O27  1  0.72881500  0.49010900  0.96669400  1
  O  O28  1  0.52044100  0.74458100  0.51359700  1
  O  O29  1  0.47955900  0.74458100  0.98640300  1
  O  O30  1  0.02044100  0.75541900  0.01359700  1
  O  O31  1  0.97955900  0.75541900  0.48640300  1
