# generated using pymatgen
data_Li6Mn3Sb3O16
_symmetry_space_group_name_H-M   'P 1'
_cell_length_a   10.57282600
_cell_length_b   6.03135800
_cell_length_c   10.03025962
_cell_angle_alpha   90.00000000
_cell_angle_beta   90.24886824
_cell_angle_gamma   90.00000000
_symmetry_Int_Tables_number   1
_chemical_formula_structural   Li6Mn3Sb3O16
_chemical_formula_sum   'Li12 Mn6 Sb6 O32'
_cell_volume   639.60856354
_cell_formula_units_Z   2
loop_
 _symmetry_equiv_pos_site_id
 _symmetry_equiv_pos_as_xyz
  1  'x, y, z'
loop_
 _atom_site_type_symbol
 _atom_site_label
 _atom_site_symmetry_multiplicity
 _atom_site_fract_x
 _atom_site_fract_y
 _atom_site_fract_z
 _atom_site_occupancy
  Li  Li0  1  0.66889300  0.00000000  0.49359900  1
  Li  Li1  1  0.66390800  0.00000000  0.12580100  1
  Li  Li2  1  0.98658000  0.00000000  0.00230100  1
  Li  Li3  1  0.99325600  0.00000000  0.49338900  1
  Li  Li4  1  0.84169900  0.50000000  0.00574500  1
  Li  Li5  1  0.83084200  0.50000000  0.61778500  1
  Li  Li6  1  0.16889300  0.50000000  0.49359900  1
  Li  Li7  1  0.16390800  0.50000000  0.12580100  1
  Li  Li8  1  0.48658000  0.50000000  0.00230100  1
  Li  Li9  1  0.49325600  0.50000000  0.49338900  1
  Li  Li10  1  0.34169900  0.00000000  0.00574500  1
  Li  Li11  1  0.33084200  0.00000000  0.61778500  1
  Mn  Mn12  1  0.83406200  0.00000000  0.78122800  1
  Mn  Mn13  1  0.91645550  0.25220150  0.28381600  1
  Mn  Mn14  1  0.91645550  0.74779850  0.28381600  1
  Mn  Mn15  1  0.33406200  0.50000000  0.78122800  1
  Mn  Mn16  1  0.41645550  0.75220150  0.28381600  1
  Mn  Mn17  1  0.41645550  0.24779850  0.28381600  1
  Sb  Sb18  1  0.58593750  0.75252650  0.78548300  1
  Sb  Sb19  1  0.58593750  0.24747350  0.78548300  1
  Sb  Sb20  1  0.66961800  0.50000000  0.28312000  1
  Sb  Sb21  1  0.08593750  0.25252650  0.78548300  1
  Sb  Sb22  1  0.08593750  0.74747350  0.78548300  1
  Sb  Sb23  1  0.16961800  0.00000000  0.28312000  1
  O  O24  1  0.57491200  0.73132400  0.38801000  1
  O  O25  1  0.51396000  0.00000000  0.67111400  1
  O  O26  1  0.65366700  0.00000000  0.90546000  1
  O  O27  1  0.51636500  0.50000000  0.67230500  1
  O  O28  1  0.99503200  0.00000000  0.18375600  1
  O  O29  1  0.57491200  0.26867600  0.38801000  1
  O  O30  1  0.74263500  0.77303200  0.67956700  1
  O  O31  1  0.74263500  0.22696800  0.67956700  1
  O  O32  1  0.65342500  0.50000000  0.90072500  1
  O  O33  1  0.84878600  0.00000000  0.38256400  1
  O  O34  1  0.76073050  0.26983050  0.17742500  1
  O  O35  1  0.76073050  0.73016950  0.17742500  1
  O  O36  1  0.83931900  0.50000000  0.39108200  1
  O  O37  1  0.92455450  0.22874250  0.88534700  1
  O  O38  1  0.98070200  0.50000000  0.18288900  1
  O  O39  1  0.92455450  0.77125750  0.88534700  1
  O  O40  1  0.07491200  0.23132400  0.38801000  1
  O  O41  1  0.01396000  0.50000000  0.67111400  1
  O  O42  1  0.15366700  0.50000000  0.90546000  1
  O  O43  1  0.01636500  0.00000000  0.67230500  1
  O  O44  1  0.49503200  0.50000000  0.18375600  1
  O  O45  1  0.07491200  0.76867600  0.38801000  1
  O  O46  1  0.24263500  0.27303200  0.67956700  1
  O  O47  1  0.24263500  0.72696800  0.67956700  1
  O  O48  1  0.15342500  0.00000000  0.90072500  1
  O  O49  1  0.34878600  0.50000000  0.38256400  1
  O  O50  1  0.26073050  0.76983050  0.17742500  1
  O  O51  1  0.26073050  0.23016950  0.17742500  1
  O  O52  1  0.33931900  0.00000000  0.39108200  1
  O  O53  1  0.42455450  0.72874250  0.88534700  1
  O  O54  1  0.48070200  0.00000000  0.18288900  1
  O  O55  1  0.42455450  0.27125750  0.88534700  1
