# generated using pymatgen
data_Na2V6O13
_symmetry_space_group_name_H-M   'P 1'
_cell_length_a   12.11832400
_cell_length_b   3.78512200
_cell_length_c   10.95345671
_cell_angle_alpha   90.00000000
_cell_angle_beta   99.56455164
_cell_angle_gamma   90.00000000
_symmetry_Int_Tables_number   1
_chemical_formula_structural   Na2V6O13
_chemical_formula_sum   'Na4 V12 O26'
_cell_volume   495.44353769
_cell_formula_units_Z   2
loop_
 _symmetry_equiv_pos_site_id
 _symmetry_equiv_pos_as_xyz
  1  'x, y, z'
loop_
 _atom_site_type_symbol
 _atom_site_label
 _atom_site_symmetry_multiplicity
 _atom_site_fract_x
 _atom_site_fract_y
 _atom_site_fract_z
 _atom_site_occupancy
  Na  Na0  1  0.94737900  0.00000000  0.33747800  1
  Na  Na1  1  0.55262100  0.50000000  0.66252200  1
  Na  Na2  1  0.44737900  0.50000000  0.33747800  1
  Na  Na3  1  0.05262100  0.00000000  0.66252200  1
  V  V4  1  0.85093400  0.50000000  0.54280500  1
  V  V5  1  0.90867700  0.50000000  0.89337300  1
  V  V6  1  0.78683200  0.50000000  0.13246100  1
  V  V7  1  0.71316800  0.00000000  0.86753900  1
  V  V8  1  0.59132300  0.00000000  0.10662700  1
  V  V9  1  0.64906600  0.00000000  0.45719500  1
  V  V10  1  0.35093400  0.00000000  0.54280500  1
  V  V11  1  0.40867700  0.00000000  0.89337300  1
  V  V12  1  0.28683200  0.00000000  0.13246100  1
  V  V13  1  0.21316800  0.50000000  0.86753900  1
  V  V14  1  0.09132300  0.50000000  0.10662700  1
  V  V15  1  0.14906600  0.50000000  0.45719500  1
  O  O16  1  0.89238200  0.50000000  0.70009100  1
  O  O17  1  0.93125700  0.50000000  0.07434900  1
  O  O18  1  0.88280500  0.00000000  0.87948900  1
  O  O19  1  0.83320000  0.50000000  0.28470200  1
  O  O20  1  0.68177000  0.50000000  0.50025100  1
  O  O21  1  0.74389800  0.50000000  0.90803900  1
  O  O22  1  0.75610200  0.00000000  0.09196100  1
  O  O23  1  0.81823000  0.00000000  0.49974900  1
  O  O24  1  0.66680000  0.00000000  0.71529800  1
  O  O25  1  0.61719500  0.50000000  0.12051100  1
  O  O26  1  0.56874300  0.00000000  0.92565100  1
  O  O27  1  0.60761800  0.00000000  0.29990900  1
  O  O28  1  0.00000000  0.50000000  0.50000000  1
  O  O29  1  0.39238200  0.00000000  0.70009100  1
  O  O30  1  0.43125700  0.00000000  0.07434900  1
  O  O31  1  0.38280500  0.50000000  0.87948900  1
  O  O32  1  0.33320000  0.00000000  0.28470200  1
  O  O33  1  0.18177000  0.00000000  0.50025100  1
  O  O34  1  0.24389800  0.00000000  0.90803900  1
  O  O35  1  0.25610200  0.50000000  0.09196100  1
  O  O36  1  0.31823000  0.50000000  0.49974900  1
  O  O37  1  0.16680000  0.50000000  0.71529800  1
  O  O38  1  0.11719500  0.00000000  0.12051100  1
  O  O39  1  0.06874300  0.50000000  0.92565100  1
  O  O40  1  0.10761800  0.50000000  0.29990900  1
  O  O41  1  0.50000000  0.00000000  0.50000000  1
