# generated using pymatgen
data_Fe3Co2Sb(PO4)6
_symmetry_space_group_name_H-M   'P 1'
_cell_length_a   8.67547424
_cell_length_b   8.67547424
_cell_length_c   20.81564366
_cell_angle_alpha   90.00000000
_cell_angle_beta   90.00000000
_cell_angle_gamma   120.00000000
_symmetry_Int_Tables_number   1
_chemical_formula_structural   Fe3Co2Sb(PO4)6
_chemical_formula_sum   'Fe9 Co6 Sb3 P18 O72'
_cell_volume   1356.77216549
_cell_formula_units_Z   3
loop_
 _symmetry_equiv_pos_site_id
 _symmetry_equiv_pos_as_xyz
  1  'x, y, z'
loop_
 _atom_site_type_symbol
 _atom_site_label
 _atom_site_symmetry_multiplicity
 _atom_site_fract_x
 _atom_site_fract_y
 _atom_site_fract_z
 _atom_site_occupancy
  Fe  Fe0  1  0.33333333  0.66666667  0.02130467  1
  Fe  Fe1  1  0.33333333  0.66666667  0.81186267  1
  Fe  Fe2  1  0.33333333  0.66666667  0.31005367  1
  Fe  Fe3  1  0.00000000  0.00000000  0.35463800  1
  Fe  Fe4  1  0.00000000  0.00000000  0.14519600  1
  Fe  Fe5  1  0.00000000  0.00000000  0.64338700  1
  Fe  Fe6  1  0.66666667  0.33333333  0.68797133  1
  Fe  Fe7  1  0.66666667  0.33333333  0.47852933  1
  Fe  Fe8  1  0.66666667  0.33333333  0.97672033  1
  Co  Co9  1  0.33333333  0.66666667  0.67357467  1
  Co  Co10  1  0.33333333  0.66666667  0.16599467  1
  Co  Co11  1  0.00000000  0.00000000  0.00690800  1
  Co  Co12  1  0.00000000  0.00000000  0.49932800  1
  Co  Co13  1  0.66666667  0.33333333  0.34024133  1
  Co  Co14  1  0.66666667  0.33333333  0.83266133  1
  Sb  Sb15  1  0.33333333  0.66666667  0.52401767  1
  Sb  Sb16  1  0.00000000  0.00000000  0.85735100  1
  Sb  Sb17  1  0.66666667  0.33333333  0.19068433  1
  P  P18  1  0.66422867  0.62953933  0.08182133  1
  P  P19  1  0.96531067  0.33577133  0.08182133  1
  P  P20  1  0.37046067  0.03468933  0.08182133  1
  P  P21  1  0.29220333  0.29570767  0.24890667  1
  P  P22  1  0.70429233  0.99649567  0.24890667  1
  P  P23  1  0.00350433  0.70779667  0.24890667  1
  P  P24  1  0.33089533  0.96287267  0.41515467  1
  P  P25  1  0.63197733  0.66910467  0.41515467  1
  P  P26  1  0.03712733  0.36802267  0.41515467  1
  P  P27  1  0.95887000  0.62904100  0.58224000  1
  P  P28  1  0.37095900  0.32982900  0.58224000  1
  P  P29  1  0.67017100  0.04113000  0.58224000  1
  P  P30  1  0.99756200  0.29620600  0.74848800  1
  P  P31  1  0.29864400  0.00243800  0.74848800  1
  P  P32  1  0.70379400  0.70135600  0.74848800  1
  P  P33  1  0.62553667  0.96237433  0.91557333  1
  P  P34  1  0.03762567  0.66316233  0.91557333  1
  P  P35  1  0.33683767  0.37446333  0.91557333  1
  O  O36  1  0.53121133  0.67514967  0.35691367  1
  O  O37  1  0.14393833  0.46878867  0.35691367  1
  O  O38  1  0.32485033  0.85606167  0.35691367  1
  O  O39  1  0.83335367  0.81593533  0.07659533  1
  O  O40  1  0.66750433  0.53315667  0.14579567  1
  O  O41  1  0.49808500  0.65034500  0.09117000  1
  O  O42  1  0.98258167  0.16664633  0.07659533  1
  O  O43  1  0.15226000  0.50191500  0.09117000  1
  O  O44  1  0.20223967  0.19376333  0.18810233  1
  O  O45  1  0.34965500  0.84774000  0.09117000  1
  O  O46  1  0.48741867  0.31697733  0.25667733  1
  O  O47  1  0.80623667  0.00847633  0.18810233  1
  O  O48  1  0.86565233  0.33249567  0.14579567  1
  O  O49  1  0.18406467  0.01741833  0.07659533  1
  O  O50  1  0.32090367  0.48638533  0.24149533  1
  O  O51  1  0.46684333  0.13434767  0.14579567  1
  O  O52  1  0.51361467  0.83451833  0.24149533  1
  O  O53  1  0.68302267  0.17044133  0.25667733  1
  O  O54  1  0.16548167  0.67909633  0.24149533  1
  O  O55  1  0.99152367  0.79776033  0.18810233  1
  O  O56  1  0.82955867  0.51258133  0.25667733  1
  O  O57  1  0.33377800  0.46763100  0.97691600  1
  O  O58  1  0.53236900  0.86614700  0.97691600  1
  O  O59  1  0.13385300  0.66622200  0.97691600  1
  O  O60  1  0.19787800  0.00848300  0.69024700  1
  O  O61  1  0.81060500  0.80212200  0.69024700  1
  O  O62  1  0.99151700  0.18939500  0.69024700  1
  O  O63  1  0.50002033  0.14926867  0.40992867  1
  O  O64  1  0.33417100  0.86649000  0.47912900  1
  O  O65  1  0.16475167  0.98367833  0.42450333  1
  O  O66  1  0.64924833  0.49997967  0.40992867  1
  O  O67  1  0.81892667  0.83524833  0.42450333  1
  O  O68  1  0.86890633  0.52709667  0.52143567  1
  O  O69  1  0.01632167  0.18107333  0.42450333  1
  O  O70  1  0.15408533  0.65031067  0.59001067  1
  O  O71  1  0.47290333  0.34180967  0.52143567  1
  O  O72  1  0.53231900  0.66582900  0.47912900  1
  O  O73  1  0.85073133  0.35075167  0.40992867  1
  O  O74  1  0.98757033  0.81971867  0.57482867  1
  O  O75  1  0.13351000  0.46768100  0.47912900  1
  O  O76  1  0.18028133  0.16785167  0.57482867  1
  O  O77  1  0.34968933  0.50377467  0.59001067  1
  O  O78  1  0.83214833  0.01242967  0.57482867  1
  O  O79  1  0.65819033  0.13109367  0.52143567  1
  O  O80  1  0.49622533  0.84591467  0.59001067  1
  O  O81  1  0.00044467  0.80096433  0.31024933  1
  O  O82  1  0.19903567  0.19948033  0.31024933  1
  O  O83  1  0.80051967  0.99955533  0.31024933  1
  O  O84  1  0.86454467  0.34181633  0.02358033  1
  O  O85  1  0.47727167  0.13545533  0.02358033  1
  O  O86  1  0.65818367  0.52272833  0.02358033  1
  O  O87  1  0.16668700  0.48260200  0.74326200  1
  O  O88  1  0.00083767  0.19982333  0.81246233  1
  O  O89  1  0.83141833  0.31701167  0.75783667  1
  O  O90  1  0.31591500  0.83331300  0.74326200  1
  O  O91  1  0.48559333  0.16858167  0.75783667  1
  O  O92  1  0.53557300  0.86043000  0.85476900  1
  O  O93  1  0.68298833  0.51440667  0.75783667  1
  O  O94  1  0.82075200  0.98364400  0.92334400  1
  O  O95  1  0.13957000  0.67514300  0.85476900  1
  O  O96  1  0.19898567  0.99916233  0.81246233  1
  O  O97  1  0.51739800  0.68408500  0.74326200  1
  O  O98  1  0.65423700  0.15305200  0.90816200  1
  O  O99  1  0.80017667  0.80101433  0.81246233  1
  O  O100  1  0.84694800  0.50118500  0.90816200  1
  O  O101  1  0.01635600  0.83710800  0.92334400  1
  O  O102  1  0.49881500  0.34576300  0.90816200  1
  O  O103  1  0.32485700  0.46442700  0.85476900  1
  O  O104  1  0.16289200  0.17924800  0.92334400  1
  O  O105  1  0.66711133  0.13429767  0.64358267  1
  O  O106  1  0.86570233  0.53281367  0.64358267  1
  O  O107  1  0.46718633  0.33288867  0.64358267  1
