# generated using pymatgen
data_Ti3Mn2Ni(PO4)6
_symmetry_space_group_name_H-M   'P 1'
_cell_length_a   8.62999552
_cell_length_b   8.62999552
_cell_length_c   21.16577594
_cell_angle_alpha   90.00000000
_cell_angle_beta   90.00000000
_cell_angle_gamma   120.00000000
_symmetry_Int_Tables_number   1
_chemical_formula_structural   Ti3Mn2Ni(PO4)6
_chemical_formula_sum   'Ti9 Mn6 Ni3 P18 O72'
_cell_volume   1365.16758229
_cell_formula_units_Z   3
loop_
 _symmetry_equiv_pos_site_id
 _symmetry_equiv_pos_as_xyz
  1  'x, y, z'
loop_
 _atom_site_type_symbol
 _atom_site_label
 _atom_site_symmetry_multiplicity
 _atom_site_fract_x
 _atom_site_fract_y
 _atom_site_fract_z
 _atom_site_occupancy
  Ti  Ti0  1  0.66666667  0.33333333  0.18950933  1
  Ti  Ti1  1  0.33333333  0.66666667  0.31259667  1
  Ti  Ti2  1  0.33333333  0.66666667  0.01948767  1
  Ti  Ti3  1  0.33333333  0.66666667  0.52284267  1
  Ti  Ti4  1  0.00000000  0.00000000  0.64593000  1
  Ti  Ti5  1  0.00000000  0.00000000  0.35282100  1
  Ti  Ti6  1  0.00000000  0.00000000  0.85617600  1
  Ti  Ti7  1  0.66666667  0.33333333  0.97926333  1
  Ti  Ti8  1  0.66666667  0.33333333  0.68615433  1
  Mn  Mn9  1  0.00000000  0.00000000  0.00407200  1
  Mn  Mn10  1  0.33333333  0.66666667  0.16730567  1
  Mn  Mn11  1  0.66666667  0.33333333  0.33740533  1
  Mn  Mn12  1  0.00000000  0.00000000  0.50063900  1
  Mn  Mn13  1  0.33333333  0.66666667  0.67073867  1
  Mn  Mn14  1  0.66666667  0.33333333  0.83397233  1
  Ni  Ni15  1  0.00000000  0.00000000  0.14366000  1
  Ni  Ni16  1  0.66666667  0.33333333  0.47699333  1
  Ni  Ni17  1  0.33333333  0.66666667  0.81032667  1
  P  P18  1  0.96052233  0.62639267  0.08350067  1
  P  P19  1  0.66587033  0.03947767  0.08350067  1
  P  P20  1  0.37360733  0.33412967  0.08350067  1
  P  P21  1  0.29299300  0.00024000  0.24825400  1
  P  P22  1  0.99976000  0.29275300  0.24825400  1
  P  P23  1  0.70724700  0.70700700  0.24825400  1
  P  P24  1  0.62718900  0.95972600  0.41683400  1
  P  P25  1  0.33253700  0.37281100  0.41683400  1
  P  P26  1  0.04027400  0.66746300  0.41683400  1
  P  P27  1  0.95965967  0.33357333  0.58158733  1
  P  P28  1  0.66642667  0.62608633  0.58158733  1
  P  P29  1  0.37391367  0.04034033  0.58158733  1
  P  P30  1  0.29385567  0.29305933  0.75016733  1
  P  P31  1  0.99920367  0.70614433  0.75016733  1
  P  P32  1  0.70694067  0.00079633  0.75016733  1
  P  P33  1  0.62632633  0.66690667  0.91492067  1
  P  P34  1  0.33309333  0.95941967  0.91492067  1
  P  P35  1  0.04058033  0.37367367  0.91492067  1
  O  O36  1  0.48417333  0.34188967  0.02475867  1
  O  O37  1  0.85771633  0.51582667  0.02475867  1
  O  O38  1  0.48317467  0.16912033  0.25520433  1
  O  O39  1  0.65811033  0.14228367  0.02475867  1
  O  O40  1  0.19783900  0.99476400  0.18881800  1
  O  O41  1  0.31841133  0.83302167  0.24853367  1
  O  O42  1  0.83087967  0.31405433  0.25520433  1
  O  O43  1  0.16697833  0.48538967  0.24853367  1
  O  O44  1  0.85586800  0.52047600  0.14303300  1
  O  O45  1  0.51461033  0.68158867  0.24853367  1
  O  O46  1  0.97723967  0.80938433  0.07633033  1
  O  O47  1  0.66460800  0.14413200  0.14303300  1
  O  O48  1  0.00523600  0.20307500  0.18881800  1
  O  O49  1  0.68594567  0.51682533  0.25520433  1
  O  O50  1  0.14723733  0.64105267  0.08811667  1
  O  O51  1  0.79692500  0.80216100  0.18881800  1
  O  O52  1  0.49381533  0.85276267  0.08811667  1
  O  O53  1  0.83214467  0.02276033  0.07633033  1
  O  O54  1  0.35894733  0.50618467  0.08811667  1
  O  O55  1  0.47952400  0.33539200  0.14303300  1
  O  O56  1  0.99789933  0.18768767  0.30901867  1
  O  O57  1  0.19061567  0.16785533  0.07633033  1
  O  O58  1  0.81231233  0.81021167  0.30901867  1
  O  O59  1  0.18978833  0.00210067  0.30901867  1
  O  O60  1  0.15084000  0.67522300  0.35809200  1
  O  O61  1  0.52438300  0.84916000  0.35809200  1
  O  O62  1  0.14984133  0.50245367  0.58853767  1
  O  O63  1  0.32477700  0.47561700  0.35809200  1
  O  O64  1  0.86450567  0.32809733  0.52215133  1
  O  O65  1  0.98507800  0.16635500  0.58186700  1
  O  O66  1  0.49754633  0.64738767  0.58853767  1
  O  O67  1  0.83364500  0.81872300  0.58186700  1
  O  O68  1  0.52253467  0.85380933  0.47636633  1
  O  O69  1  0.18127700  0.01492200  0.58186700  1
  O  O70  1  0.64390633  0.14271767  0.40966367  1
  O  O71  1  0.33127467  0.47746533  0.47636633  1
  O  O72  1  0.67190267  0.53640833  0.52215133  1
  O  O73  1  0.35261233  0.85015867  0.58853767  1
  O  O74  1  0.81390400  0.97438600  0.42145000  1
  O  O75  1  0.46359167  0.13549433  0.52215133  1
  O  O76  1  0.16048200  0.18609600  0.42145000  1
  O  O77  1  0.49881133  0.35609367  0.40966367  1
  O  O78  1  0.02561400  0.83951800  0.42145000  1
  O  O79  1  0.14619067  0.66872533  0.47636633  1
  O  O80  1  0.66456600  0.52102100  0.64235200  1
  O  O81  1  0.85728233  0.50118867  0.40966367  1
  O  O82  1  0.47897900  0.14354500  0.64235200  1
  O  O83  1  0.85645500  0.33543400  0.64235200  1
  O  O84  1  0.81750667  0.00855633  0.69142533  1
  O  O85  1  0.19104967  0.18249333  0.69142533  1
  O  O86  1  0.81650800  0.83578700  0.92187100  1
  O  O87  1  0.99144367  0.80895033  0.69142533  1
  O  O88  1  0.53117233  0.66143067  0.85548467  1
  O  O89  1  0.65174467  0.49968833  0.91520033  1
  O  O90  1  0.16421300  0.98072100  0.92187100  1
  O  O91  1  0.50031167  0.15205633  0.91520033  1
  O  O92  1  0.18920133  0.18714267  0.80969967  1
  O  O93  1  0.84794367  0.34825533  0.91520033  1
  O  O94  1  0.31057300  0.47605100  0.74299700  1
  O  O95  1  0.99794133  0.81079867  0.80969967  1
  O  O96  1  0.33856933  0.86974167  0.85548467  1
  O  O97  1  0.01927900  0.18349200  0.92187100  1
  O  O98  1  0.48057067  0.30771933  0.75478333  1
  O  O99  1  0.13025833  0.46882767  0.85548467  1
  O  O100  1  0.82714867  0.51942933  0.75478333  1
  O  O101  1  0.16547800  0.68942700  0.74299700  1
  O  O102  1  0.69228067  0.17285133  0.75478333  1
  O  O103  1  0.81285733  0.00205867  0.80969967  1
  O  O104  1  0.33123267  0.85435433  0.97568533  1
  O  O105  1  0.52394900  0.83452200  0.74299700  1
  O  O106  1  0.14564567  0.47687833  0.97568533  1
  O  O107  1  0.52312167  0.66876733  0.97568533  1
