# generated using pymatgen
data_Li4Mn3V3(WO8)2
_symmetry_space_group_name_H-M   'P 1'
_cell_length_a   10.54336000
_cell_length_b   6.10480000
_cell_length_c   9.84581671
_cell_angle_alpha   90.00000000
_cell_angle_beta   91.28126682
_cell_angle_gamma   90.00000000
_symmetry_Int_Tables_number   1
_chemical_formula_structural   Li4Mn3V3(WO8)2
_chemical_formula_sum   'Li8 Mn6 V6 W4 O32'
_cell_volume   633.56856954
_cell_formula_units_Z   2
loop_
 _symmetry_equiv_pos_site_id
 _symmetry_equiv_pos_as_xyz
  1  'x, y, z'
loop_
 _atom_site_type_symbol
 _atom_site_label
 _atom_site_symmetry_multiplicity
 _atom_site_fract_x
 _atom_site_fract_y
 _atom_site_fract_z
 _atom_site_occupancy
  Li  Li0  1  0.65977500  0.00000000  0.90950000  1
  Li  Li1  1  0.00676200  0.00000000  0.98713200  1
  Li  Li2  1  0.00573400  0.00000000  0.48774000  1
  Li  Li3  1  0.32846500  0.00000000  0.40511600  1
  Li  Li4  1  0.15977500  0.50000000  0.90950000  1
  Li  Li5  1  0.50676200  0.50000000  0.98713200  1
  Li  Li6  1  0.50573400  0.50000000  0.48774000  1
  Li  Li7  1  0.82846500  0.50000000  0.40511600  1
  Mn  Mn8  1  0.83152600  0.00000000  0.21090400  1
  Mn  Mn9  1  0.41619750  0.24567350  0.70859400  1
  Mn  Mn10  1  0.41619750  0.75432650  0.70859400  1
  Mn  Mn11  1  0.33152600  0.50000000  0.21090400  1
  Mn  Mn12  1  0.91619750  0.74567350  0.70859400  1
  Mn  Mn13  1  0.91619750  0.25432650  0.70859400  1
  V  V14  1  0.58959050  0.24664850  0.21605200  1
  V  V15  1  0.58959050  0.75335150  0.21605200  1
  V  V16  1  0.17458000  0.00000000  0.72367600  1
  V  V17  1  0.08959050  0.74664850  0.21605200  1
  V  V18  1  0.08959050  0.25335150  0.21605200  1
  V  V19  1  0.67458000  0.50000000  0.72367600  1
  W  W20  1  0.66600000  0.00000000  0.48653100  1
  W  W21  1  0.33689600  0.00000000  0.98897500  1
  W  W22  1  0.16600000  0.50000000  0.48653100  1
  W  W23  1  0.83689600  0.50000000  0.98897500  1
  O  O24  1  0.59335100  0.23815500  0.58884700  1
  O  O25  1  0.52032800  0.00000000  0.35040800  1
  O  O26  1  0.65577300  0.00000000  0.11009200  1
  O  O27  1  0.00765500  0.00000000  0.30152400  1
  O  O28  1  0.01446800  0.00000000  0.79798200  1
  O  O29  1  0.59335100  0.76184500  0.58884700  1
  O  O30  1  0.73294800  0.22243800  0.35173000  1
  O  O31  1  0.73294800  0.77756200  0.35173000  1
  O  O32  1  0.17859200  0.00000000  0.09427500  1
  O  O33  1  0.82868300  0.00000000  0.57705700  1
  O  O34  1  0.25019900  0.21082800  0.85446700  1
  O  O35  1  0.25019900  0.78917200  0.85446700  1
  O  O36  1  0.31153500  0.00000000  0.61032600  1
  O  O37  1  0.41821200  0.23731300  0.08489200  1
  O  O38  1  0.47340300  0.00000000  0.85742100  1
  O  O39  1  0.41821200  0.76268700  0.08489200  1
  O  O40  1  0.09335100  0.73815500  0.58884700  1
  O  O41  1  0.02032800  0.50000000  0.35040800  1
  O  O42  1  0.15577300  0.50000000  0.11009200  1
  O  O43  1  0.50765500  0.50000000  0.30152400  1
  O  O44  1  0.51446800  0.50000000  0.79798200  1
  O  O45  1  0.09335100  0.26184500  0.58884700  1
  O  O46  1  0.23294800  0.72243800  0.35173000  1
  O  O47  1  0.23294800  0.27756200  0.35173000  1
  O  O48  1  0.67859200  0.50000000  0.09427500  1
  O  O49  1  0.32868300  0.50000000  0.57705700  1
  O  O50  1  0.75019900  0.71082800  0.85446700  1
  O  O51  1  0.75019900  0.28917200  0.85446700  1
  O  O52  1  0.81153500  0.50000000  0.61032600  1
  O  O53  1  0.91821200  0.73731300  0.08489200  1
  O  O54  1  0.97340300  0.50000000  0.85742100  1
  O  O55  1  0.91821200  0.26268700  0.08489200  1
