# generated using pymatgen
data_Fe3O5F
_symmetry_space_group_name_H-M   'P 1'
_cell_length_a   6.71104400
_cell_length_b   6.40631400
_cell_length_c   9.01166188
_cell_angle_alpha   90.00000000
_cell_angle_beta   90.95504150
_cell_angle_gamma   90.00000000
_symmetry_Int_Tables_number   1
_chemical_formula_structural   Fe3O5F
_chemical_formula_sum   'Fe12 O20 F4'
_cell_volume   387.38505389
_cell_formula_units_Z   4
loop_
 _symmetry_equiv_pos_site_id
 _symmetry_equiv_pos_as_xyz
  1  'x, y, z'
loop_
 _atom_site_type_symbol
 _atom_site_label
 _atom_site_symmetry_multiplicity
 _atom_site_fract_x
 _atom_site_fract_y
 _atom_site_fract_z
 _atom_site_occupancy
  Fe  Fe0  1  0.00421100  0.00000000  0.65837700  1
  Fe  Fe1  1  0.99578900  0.00000000  0.34162300  1
  Fe  Fe2  1  0.00000000  0.00000000  0.00000000  1
  Fe  Fe3  1  0.50000000  0.00000000  0.50000000  1
  Fe  Fe4  1  0.47406600  0.00000000  0.83269000  1
  Fe  Fe5  1  0.52593400  0.00000000  0.16731000  1
  Fe  Fe6  1  0.50421100  0.50000000  0.65837700  1
  Fe  Fe7  1  0.49578900  0.50000000  0.34162300  1
  Fe  Fe8  1  0.50000000  0.50000000  0.00000000  1
  Fe  Fe9  1  0.00000000  0.50000000  0.50000000  1
  Fe  Fe10  1  0.97406600  0.50000000  0.83269000  1
  Fe  Fe11  1  0.02593400  0.50000000  0.16731000  1
  O  O12  1  0.19371600  0.00000000  0.49572400  1
  O  O13  1  0.17858200  0.00000000  0.83097400  1
  O  O14  1  0.49280500  0.19250800  0.66664000  1
  O  O15  1  0.50719500  0.19250800  0.33336000  1
  O  O16  1  0.50000000  0.19483400  0.00000000  1
  O  O17  1  0.49280500  0.80749200  0.66664000  1
  O  O18  1  0.50719500  0.80749200  0.33336000  1
  O  O19  1  0.50000000  0.80516600  0.00000000  1
  O  O20  1  0.80628400  0.00000000  0.50427600  1
  O  O21  1  0.82141800  0.00000000  0.16902600  1
  O  O22  1  0.69371600  0.50000000  0.49572400  1
  O  O23  1  0.67858200  0.50000000  0.83097400  1
  O  O24  1  0.99280500  0.69250800  0.66664000  1
  O  O25  1  0.00719500  0.69250800  0.33336000  1
  O  O26  1  0.00000000  0.69483400  0.00000000  1
  O  O27  1  0.99280500  0.30749200  0.66664000  1
  O  O28  1  0.00719500  0.30749200  0.33336000  1
  O  O29  1  0.00000000  0.30516600  0.00000000  1
  O  O30  1  0.30628400  0.50000000  0.50427600  1
  O  O31  1  0.32141800  0.50000000  0.16902600  1
  F  F32  1  0.20548300  0.00000000  0.16782400  1
  F  F33  1  0.79451700  0.00000000  0.83217600  1
  F  F34  1  0.70548300  0.50000000  0.16782400  1
  F  F35  1  0.29451700  0.50000000  0.83217600  1
