# generated using pymatgen
data_VOF2
_symmetry_space_group_name_H-M   'P 1'
_cell_length_a   23.21445400
_cell_length_b   5.21104600
_cell_length_c   5.39721446
_cell_angle_alpha   90.00000000
_cell_angle_beta   101.50823886
_cell_angle_gamma   90.00000000
_symmetry_Int_Tables_number   1
_chemical_formula_structural   VOF2
_chemical_formula_sum   'V12 O12 F24'
_cell_volume   639.78352440
_cell_formula_units_Z   12
loop_
 _symmetry_equiv_pos_site_id
 _symmetry_equiv_pos_as_xyz
  1  'x, y, z'
loop_
 _atom_site_type_symbol
 _atom_site_label
 _atom_site_symmetry_multiplicity
 _atom_site_fract_x
 _atom_site_fract_y
 _atom_site_fract_z
 _atom_site_occupancy
  V  V0  1  0.25088000  0.10458300  0.26727900  1
  V  V1  1  0.41493050  0.11254250  0.38673900  1
  V  V2  1  0.08506950  0.61254250  0.61326100  1
  V  V3  1  0.24912000  0.60458300  0.73272100  1
  V  V4  1  0.08153500  0.10408200  0.11674100  1
  V  V5  1  0.41846500  0.60408200  0.88325900  1
  V  V6  1  0.75088000  0.60458300  0.26727900  1
  V  V7  1  0.91493050  0.61254250  0.38673900  1
  V  V8  1  0.58506950  0.11254250  0.61326100  1
  V  V9  1  0.74912000  0.10458300  0.73272100  1
  V  V10  1  0.58153500  0.60408200  0.11674100  1
  V  V11  1  0.91846500  0.10408200  0.88325900  1
  O  O12  1  0.40393150  0.36021850  0.18775300  1
  O  O13  1  0.09606850  0.86021850  0.81224700  1
  O  O14  1  0.23899800  0.85207900  0.52652600  1
  O  O15  1  0.07199200  0.29130700  0.35506200  1
  O  O16  1  0.42800800  0.79130700  0.64493800  1
  O  O17  1  0.26100200  0.35207900  0.47347400  1
  O  O18  1  0.90393150  0.86021850  0.18775300  1
  O  O19  1  0.59606850  0.36021850  0.81224700  1
  O  O20  1  0.73899800  0.35207900  0.52652600  1
  O  O21  1  0.57199200  0.79130700  0.35506200  1
  O  O22  1  0.92800800  0.29130700  0.64493800  1
  O  O23  1  0.76100200  0.85207900  0.47347400  1
  F  F24  1  0.00000000  0.97923500  0.00000000  1
  F  F25  1  0.39856000  0.28475900  0.68979800  1
  F  F26  1  0.00000000  0.66993500  0.50000000  1
  F  F27  1  0.33322800  0.98741300  0.32272600  1
  F  F28  1  0.43668050  0.85964150  0.15350600  1
  F  F29  1  0.06331950  0.35964150  0.84649400  1
  F  F30  1  0.10144000  0.78475900  0.31020200  1
  F  F31  1  0.23552400  0.79679500  0.03050200  1
  F  F32  1  0.33383850  0.67105850  0.85429800  1
  F  F33  1  0.16677200  0.48741300  0.67727400  1
  F  F34  1  0.26447600  0.29679500  0.96949800  1
  F  F35  1  0.16616150  0.17105850  0.14570200  1
  F  F36  1  0.50000000  0.47923500  0.00000000  1
  F  F37  1  0.89856000  0.78475900  0.68979800  1
  F  F38  1  0.50000000  0.16993500  0.50000000  1
  F  F39  1  0.83322800  0.48741300  0.32272600  1
  F  F40  1  0.93668050  0.35964150  0.15350600  1
  F  F41  1  0.56331950  0.85964150  0.84649400  1
  F  F42  1  0.60144000  0.28475900  0.31020200  1
  F  F43  1  0.73552400  0.29679500  0.03050200  1
  F  F44  1  0.83383850  0.17105850  0.85429800  1
  F  F45  1  0.66677200  0.98741300  0.67727400  1
  F  F46  1  0.76447600  0.79679500  0.96949800  1
  F  F47  1  0.66616150  0.67105850  0.14570200  1
