# generated using pymatgen
data_Ti3V2Co(PO4)6
_symmetry_space_group_name_H-M   'P 1'
_cell_length_a   8.68717683
_cell_length_b   8.68717683
_cell_length_c   20.85727638
_cell_angle_alpha   90.00000000
_cell_angle_beta   90.00000000
_cell_angle_gamma   120.00000000
_symmetry_Int_Tables_number   1
_chemical_formula_structural   Ti3V2Co(PO4)6
_chemical_formula_sum   'Ti9 V6 Co3 P18 O72'
_cell_volume   1363.15597278
_cell_formula_units_Z   3
loop_
 _symmetry_equiv_pos_site_id
 _symmetry_equiv_pos_as_xyz
  1  'x, y, z'
loop_
 _atom_site_type_symbol
 _atom_site_label
 _atom_site_symmetry_multiplicity
 _atom_site_fract_x
 _atom_site_fract_y
 _atom_site_fract_z
 _atom_site_occupancy
  Ti  Ti0  1  0.33333333  0.66666667  0.31198667  1
  Ti  Ti1  1  0.33333333  0.66666667  0.52410167  1
  Ti  Ti2  1  0.33333333  0.66666667  0.02127867  1
  Ti  Ti3  1  0.00000000  0.00000000  0.64532000  1
  Ti  Ti4  1  0.00000000  0.00000000  0.85743500  1
  Ti  Ti5  1  0.00000000  0.00000000  0.35461200  1
  Ti  Ti6  1  0.66666667  0.33333333  0.97865333  1
  Ti  Ti7  1  0.66666667  0.33333333  0.19076833  1
  Ti  Ti8  1  0.66666667  0.33333333  0.68794533  1
  V  V9  1  0.33333333  0.66666667  0.66778267  1
  V  V10  1  0.33333333  0.66666667  0.16785367  1
  V  V11  1  0.00000000  0.00000000  0.00111600  1
  V  V12  1  0.00000000  0.00000000  0.50118700  1
  V  V13  1  0.66666667  0.33333333  0.33444933  1
  V  V14  1  0.66666667  0.33333333  0.83452033  1
  Co  Co15  1  0.33333333  0.66666667  0.80946767  1
  Co  Co16  1  0.00000000  0.00000000  0.14280100  1
  Co  Co17  1  0.66666667  0.33333333  0.47613433  1
  P  P18  1  0.00006367  0.29296633  0.24844733  1
  P  P19  1  0.70703367  0.70709733  0.24844733  1
  P  P20  1  0.29290267  0.99993633  0.24844733  1
  P  P21  1  0.37424867  0.33461433  0.08369733  1
  P  P22  1  0.96036567  0.62575133  0.08369733  1
  P  P23  1  0.66538567  0.03963433  0.08369733  1
  P  P24  1  0.66673033  0.62629967  0.58178067  1
  P  P25  1  0.37370033  0.04043067  0.58178067  1
  P  P26  1  0.95956933  0.33326967  0.58178067  1
  P  P27  1  0.04091533  0.66794767  0.41703067  1
  P  P28  1  0.62703233  0.95908467  0.41703067  1
  P  P29  1  0.33205233  0.37296767  0.41703067  1
  P  P30  1  0.33339700  0.95963300  0.91511400  1
  P  P31  1  0.04036700  0.37376400  0.91511400  1
  P  P32  1  0.62623600  0.66660300  0.91511400  1
  P  P33  1  0.70758200  0.00128100  0.75036400  1
  P  P34  1  0.29369900  0.29241800  0.75036400  1
  P  P35  1  0.99871900  0.70630100  0.75036400  1
  O  O36  1  0.14264967  0.48113433  0.97609433  1
  O  O37  1  0.51886567  0.66151533  0.97609433  1
  O  O38  1  0.33848467  0.85735033  0.97609433  1
  O  O39  1  0.83271000  0.31552500  0.25739900  1
  O  O40  1  0.99658933  0.20014467  0.18752967  1
  O  O41  1  0.16529433  0.48598867  0.24653467  1
  O  O42  1  0.68447500  0.51718500  0.25739900  1
  O  O43  1  0.51401133  0.67930567  0.24653467  1
  O  O44  1  0.14193033  0.66248767  0.47758067  1
  O  O45  1  0.32069433  0.83470567  0.24653467  1
  O  O46  1  0.19139367  0.17019833  0.07385133  1
  O  O47  1  0.52055733  0.85806967  0.47758067  1
  O  O48  1  0.79985533  0.79644467  0.18752967  1
  O  O49  1  0.48281500  0.16729000  0.25739900  1
  O  O50  1  0.35521967  0.50363933  0.09024033  1
  O  O51  1  0.20355533  0.00341067  0.18752967  1
  O  O52  1  0.14841967  0.64478033  0.09024033  1
  O  O53  1  0.97880467  0.80860633  0.07385133  1
  O  O54  1  0.49636067  0.85158033  0.09024033  1
  O  O55  1  0.33751233  0.47944267  0.47758067  1
  O  O56  1  0.82980167  0.02119533  0.07385133  1
  O  O57  1  0.31520633  0.47131767  0.35780267  1
  O  O58  1  0.15611133  0.68479367  0.35780267  1
  O  O59  1  0.52868233  0.84388867  0.35780267  1
  O  O60  1  0.80931633  0.81446767  0.30942767  1
  O  O61  1  0.18553233  0.99484867  0.30942767  1
  O  O62  1  0.00515133  0.19068367  0.30942767  1
  O  O63  1  0.49937667  0.64885833  0.59073233  1
  O  O64  1  0.66325600  0.53347800  0.52086300  1
  O  O65  1  0.83196100  0.81932200  0.57986800  1
  O  O66  1  0.35114167  0.85051833  0.59073233  1
  O  O67  1  0.18067800  0.01263900  0.57986800  1
  O  O68  1  0.80859700  0.99582100  0.81091400  1
  O  O69  1  0.98736100  0.16803900  0.57986800  1
  O  O70  1  0.85806033  0.50353167  0.40718467  1
  O  O71  1  0.18722400  0.19140300  0.81091400  1
  O  O72  1  0.46652200  0.12977800  0.52086300  1
  O  O73  1  0.14948167  0.50062333  0.59073233  1
  O  O74  1  0.02188633  0.83697267  0.42357367  1
  O  O75  1  0.87022200  0.33674400  0.52086300  1
  O  O76  1  0.81508633  0.97811367  0.42357367  1
  O  O77  1  0.64547133  0.14193967  0.40718467  1
  O  O78  1  0.16302733  0.18491367  0.42357367  1
  O  O79  1  0.00417900  0.81277600  0.81091400  1
  O  O80  1  0.49646833  0.35452867  0.40718467  1
  O  O81  1  0.98187300  0.80465100  0.69113600  1
  O  O82  1  0.82277800  0.01812700  0.69113600  1
  O  O83  1  0.19534900  0.17722200  0.69113600  1
  O  O84  1  0.47598300  0.14780100  0.64276100  1
  O  O85  1  0.85219900  0.32818200  0.64276100  1
  O  O86  1  0.67181800  0.52401700  0.64276100  1
  O  O87  1  0.16604333  0.98219167  0.92406567  1
  O  O88  1  0.32992267  0.86681133  0.85419633  1
  O  O89  1  0.49862767  0.15265533  0.91320133  1
  O  O90  1  0.01780833  0.18385167  0.92406567  1
  O  O91  1  0.84734467  0.34597233  0.91320133  1
  O  O92  1  0.47526367  0.32915433  0.14424733  1
  O  O93  1  0.65402767  0.50137233  0.91320133  1
  O  O94  1  0.52472700  0.83686500  0.74051800  1
  O  O95  1  0.85389067  0.52473633  0.14424733  1
  O  O96  1  0.13318867  0.46311133  0.85419633  1
  O  O97  1  0.81614833  0.83395667  0.92406567  1
  O  O98  1  0.68855300  0.17030600  0.75690700  1
  O  O99  1  0.53688867  0.67007733  0.85419633  1
  O  O100  1  0.48175300  0.31144700  0.75690700  1
  O  O101  1  0.31213800  0.47527300  0.74051800  1
  O  O102  1  0.82969400  0.51824700  0.75690700  1
  O  O103  1  0.67084567  0.14610933  0.14424733  1
  O  O104  1  0.16313500  0.68786200  0.74051800  1
  O  O105  1  0.64853967  0.13798433  0.02446933  1
  O  O106  1  0.48944467  0.35146033  0.02446933  1
  O  O107  1  0.86201567  0.51055533  0.02446933  1
