# generated using pymatgen
data_Li4V3P8O29
_symmetry_space_group_name_H-M   'P 1'
_cell_length_a   16.97923400
_cell_length_b   9.78357200
_cell_length_c   14.09911532
_cell_angle_alpha   90.00000000
_cell_angle_beta   90.09236988
_cell_angle_gamma   90.00000000
_symmetry_Int_Tables_number   1
_chemical_formula_structural   Li4V3P8O29
_chemical_formula_sum   'Li16 V12 P32 O116'
_cell_volume   2342.10756849
_cell_formula_units_Z   4
loop_
 _symmetry_equiv_pos_site_id
 _symmetry_equiv_pos_as_xyz
  1  'x, y, z'
loop_
 _atom_site_type_symbol
 _atom_site_label
 _atom_site_symmetry_multiplicity
 _atom_site_fract_x
 _atom_site_fract_y
 _atom_site_fract_z
 _atom_site_occupancy
  Li  Li0  1  0.54692750  0.22937850  0.05775000  1
  Li  Li1  1  0.61416500  0.30019000  0.56079600  1
  Li  Li2  1  0.54692750  0.77062150  0.55775000  1
  Li  Li3  1  0.61416500  0.69981000  0.06079600  1
  Li  Li4  1  0.88583500  0.80019000  0.93920400  1
  Li  Li5  1  0.95307250  0.72937850  0.44225000  1
  Li  Li6  1  0.88583500  0.19981000  0.43920400  1
  Li  Li7  1  0.95307250  0.27062150  0.94225000  1
  Li  Li8  1  0.04692750  0.72937850  0.05775000  1
  Li  Li9  1  0.11416500  0.80019000  0.56079600  1
  Li  Li10  1  0.04692750  0.27062150  0.55775000  1
  Li  Li11  1  0.11416500  0.19981000  0.06079600  1
  Li  Li12  1  0.38583500  0.30019000  0.93920400  1
  Li  Li13  1  0.45307250  0.22937850  0.44225000  1
  Li  Li14  1  0.38583500  0.69981000  0.43920400  1
  Li  Li15  1  0.45307250  0.77062150  0.94225000  1
  V  V16  1  0.00000000  0.43013100  0.75000000  1
  V  V17  1  0.71834250  0.28753150  0.75586700  1
  V  V18  1  0.71834250  0.71246850  0.25586700  1
  V  V19  1  0.78165750  0.78753150  0.74413300  1
  V  V20  1  0.78165750  0.21246850  0.24413300  1
  V  V21  1  0.00000000  0.56986900  0.25000000  1
  V  V22  1  0.50000000  0.93013100  0.75000000  1
  V  V23  1  0.21834250  0.78753150  0.75586700  1
  V  V24  1  0.21834250  0.21246850  0.25586700  1
  V  V25  1  0.28165750  0.28753150  0.74413300  1
  V  V26  1  0.28165750  0.71246850  0.24413300  1
  V  V27  1  0.50000000  0.06986900  0.25000000  1
  P  P28  1  0.54495650  0.22317150  0.84027000  1
  P  P29  1  0.61706850  0.29739750  0.34474900  1
  P  P30  1  0.54495650  0.77682850  0.34027000  1
  P  P31  1  0.66492150  0.00389350  0.62885800  1
  P  P32  1  0.66492150  0.99610650  0.12885800  1
  P  P33  1  0.61706850  0.70260250  0.84474900  1
  P  P34  1  0.65751050  0.57117050  0.66078700  1
  P  P35  1  0.84248950  0.07117050  0.83921300  1
  P  P36  1  0.65751050  0.42882950  0.16078700  1
  P  P37  1  0.84248950  0.92882950  0.33921300  1
  P  P38  1  0.88293150  0.79739750  0.15525100  1
  P  P39  1  0.83507850  0.50389350  0.87114200  1
  P  P40  1  0.83507850  0.49610650  0.37114200  1
  P  P41  1  0.95504350  0.72317150  0.65973000  1
  P  P42  1  0.88293150  0.20260250  0.65525100  1
  P  P43  1  0.95504350  0.27682850  0.15973000  1
  P  P44  1  0.04495650  0.72317150  0.84027000  1
  P  P45  1  0.11706850  0.79739750  0.34474900  1
  P  P46  1  0.04495650  0.27682850  0.34027000  1
  P  P47  1  0.16492150  0.50389350  0.62885800  1
  P  P48  1  0.16492150  0.49610650  0.12885800  1
  P  P49  1  0.11706850  0.20260250  0.84474900  1
  P  P50  1  0.15751050  0.07117050  0.66078700  1
  P  P51  1  0.34248950  0.57117050  0.83921300  1
  P  P52  1  0.15751050  0.92882950  0.16078700  1
  P  P53  1  0.34248950  0.42882950  0.33921300  1
  P  P54  1  0.38293150  0.29739750  0.15525100  1
  P  P55  1  0.33507850  0.00389350  0.87114200  1
  P  P56  1  0.33507850  0.99610650  0.37114200  1
  P  P57  1  0.45504350  0.22317150  0.65973000  1
  P  P58  1  0.38293150  0.70260250  0.65525100  1
  P  P59  1  0.45504350  0.77682850  0.15973000  1
  O  O60  1  0.99831300  0.75939900  0.57091200  1
  O  O61  1  0.54249900  0.20550500  0.33941100  1
  O  O62  1  0.60737100  0.40107900  0.25647900  1
  O  O63  1  0.61537200  0.37813400  0.07580200  1
  O  O64  1  0.54977550  0.06858250  0.82340700  1
  O  O65  1  0.62827400  0.28703600  0.83390000  1
  O  O66  1  0.59260550  0.07870750  0.16735500  1
  O  O67  1  0.54977550  0.93141750  0.32340700  1
  O  O68  1  0.99831300  0.24060100  0.07091200  1
  O  O69  1  0.54249900  0.79449500  0.83941100  1
  O  O70  1  0.66517950  0.15274450  0.67088700  1
  O  O71  1  0.59260550  0.92129250  0.66735500  1
  O  O72  1  0.69171900  0.21224400  0.31991200  1
  O  O73  1  0.66735000  0.00203300  0.52351200  1
  O  O74  1  0.66735000  0.99796700  0.02351200  1
  O  O75  1  0.76116550  0.14341450  0.82349700  1
  O  O76  1  0.66517950  0.84725550  0.17088700  1
  O  O77  1  0.74031200  0.07249300  0.17435600  1
  O  O78  1  0.62827400  0.71296400  0.33390000  1
  O  O79  1  0.60737100  0.59892100  0.75647900  1
  O  O80  1  0.62253450  0.62945250  0.93628500  1
  O  O81  1  0.61537200  0.62186600  0.57580200  1
  O  O82  1  0.69171900  0.78775600  0.81991200  1
  O  O83  1  0.74031200  0.92750700  0.67435600  1
  O  O84  1  0.83030200  0.08586900  0.33845600  1
  O  O85  1  0.66969800  0.58586900  0.16154400  1
  O  O86  1  0.76116550  0.85658550  0.32349700  1
  O  O87  1  0.62253450  0.37054750  0.43628500  1
  O  O88  1  0.87746550  0.12945250  0.56371500  1
  O  O89  1  0.73883450  0.64341450  0.67650300  1
  O  O90  1  0.83030200  0.91413100  0.83845600  1
  O  O91  1  0.89262900  0.09892100  0.74352100  1
  O  O92  1  0.66969800  0.41413100  0.66154400  1
  O  O93  1  0.75968800  0.57249300  0.32564400  1
  O  O94  1  0.80828100  0.71224400  0.18008800  1
  O  O95  1  0.87746550  0.87054750  0.06371500  1
  O  O96  1  0.88462800  0.87813400  0.42419800  1
  O  O97  1  0.89262900  0.90107900  0.24352100  1
  O  O98  1  0.87172600  0.78703600  0.66610000  1
  O  O99  1  0.75968800  0.42750700  0.82564400  1
  O  O100  1  0.73883450  0.35658550  0.17650300  1
  O  O101  1  0.83482050  0.65274450  0.82911300  1
  O  O102  1  0.83265000  0.49796700  0.47648800  1
  O  O103  1  0.83265000  0.50203300  0.97648800  1
  O  O104  1  0.80828100  0.28775600  0.68008800  1
  O  O105  1  0.90739450  0.57870750  0.33264500  1
  O  O106  1  0.83482050  0.34725550  0.32911300  1
  O  O107  1  0.95750100  0.70550500  0.16058900  1
  O  O108  1  0.00000000  0.78986500  0.75000000  1
  O  O109  1  0.50168700  0.25939900  0.92908800  1
  O  O110  1  0.95022450  0.56858250  0.67659300  1
  O  O111  1  0.90739450  0.42129250  0.83264500  1
  O  O112  1  0.87172600  0.21296400  0.16610000  1
  O  O113  1  0.95022450  0.43141750  0.17659300  1
  O  O114  1  0.88462800  0.12186600  0.92419800  1
  O  O115  1  0.95750100  0.29449500  0.66058900  1
  O  O116  1  0.50168700  0.74060100  0.42908800  1
  O  O117  1  0.00000000  0.21013500  0.25000000  1
  O  O118  1  0.49831300  0.25939900  0.57091200  1
  O  O119  1  0.04249900  0.70550500  0.33941100  1
  O  O120  1  0.10737100  0.90107900  0.25647900  1
  O  O121  1  0.11537200  0.87813400  0.07580200  1
  O  O122  1  0.04977550  0.56858250  0.82340700  1
  O  O123  1  0.12827400  0.78703600  0.83390000  1
  O  O124  1  0.09260550  0.57870750  0.16735500  1
  O  O125  1  0.04977550  0.43141750  0.32340700  1
  O  O126  1  0.49831300  0.74060100  0.07091200  1
  O  O127  1  0.04249900  0.29449500  0.83941100  1
  O  O128  1  0.16517950  0.65274450  0.67088700  1
  O  O129  1  0.09260550  0.42129250  0.66735500  1
  O  O130  1  0.19171900  0.71224400  0.31991200  1
  O  O131  1  0.16735000  0.50203300  0.52351200  1
  O  O132  1  0.16735000  0.49796700  0.02351200  1
  O  O133  1  0.26116550  0.64341450  0.82349700  1
  O  O134  1  0.16517950  0.34725550  0.17088700  1
  O  O135  1  0.24031200  0.57249300  0.17435600  1
  O  O136  1  0.12827400  0.21296400  0.33390000  1
  O  O137  1  0.10737100  0.09892100  0.75647900  1
  O  O138  1  0.12253450  0.12945250  0.93628500  1
  O  O139  1  0.11537200  0.12186600  0.57580200  1
  O  O140  1  0.19171900  0.28775600  0.81991200  1
  O  O141  1  0.24031200  0.42750700  0.67435600  1
  O  O142  1  0.33030200  0.58586900  0.33845600  1
  O  O143  1  0.16969800  0.08586900  0.16154400  1
  O  O144  1  0.26116550  0.35658550  0.32349700  1
  O  O145  1  0.12253450  0.87054750  0.43628500  1
  O  O146  1  0.37746550  0.62945250  0.56371500  1
  O  O147  1  0.23883450  0.14341450  0.67650300  1
  O  O148  1  0.33030200  0.41413100  0.83845600  1
  O  O149  1  0.39262900  0.59892100  0.74352100  1
  O  O150  1  0.16969800  0.91413100  0.66154400  1
  O  O151  1  0.25968800  0.07249300  0.32564400  1
  O  O152  1  0.30828100  0.21224400  0.18008800  1
  O  O153  1  0.37746550  0.37054750  0.06371500  1
  O  O154  1  0.38462800  0.37813400  0.42419800  1
  O  O155  1  0.39262900  0.40107900  0.24352100  1
  O  O156  1  0.37172600  0.28703600  0.66610000  1
  O  O157  1  0.25968800  0.92750700  0.82564400  1
  O  O158  1  0.23883450  0.85658550  0.17650300  1
  O  O159  1  0.33482050  0.15274450  0.82911300  1
  O  O160  1  0.33265000  0.99796700  0.47648800  1
  O  O161  1  0.33265000  0.00203300  0.97648800  1
  O  O162  1  0.30828100  0.78775600  0.68008800  1
  O  O163  1  0.40739450  0.07870750  0.33264500  1
  O  O164  1  0.33482050  0.84725550  0.32911300  1
  O  O165  1  0.45750100  0.20550500  0.16058900  1
  O  O166  1  0.50000000  0.28986500  0.75000000  1
  O  O167  1  0.00168700  0.75939900  0.92908800  1
  O  O168  1  0.45022450  0.06858250  0.67659300  1
  O  O169  1  0.40739450  0.92129250  0.83264500  1
  O  O170  1  0.37172600  0.71296400  0.16610000  1
  O  O171  1  0.45022450  0.93141750  0.17659300  1
  O  O172  1  0.38462800  0.62186600  0.92419800  1
  O  O173  1  0.45750100  0.79449500  0.66058900  1
  O  O174  1  0.00168700  0.24060100  0.42908800  1
  O  O175  1  0.50000000  0.71013500  0.25000000  1
