# generated using pymatgen
data_V4FeCoO12
_symmetry_space_group_name_H-M   'P 1'
_cell_length_a   10.20694084
_cell_length_b   9.13007572
_cell_length_c   5.91721273
_cell_angle_alpha   90.00000000
_cell_angle_beta   110.93329577
_cell_angle_gamma   90.00000000
_symmetry_Int_Tables_number   1
_chemical_formula_structural   V4FeCoO12
_chemical_formula_sum   'V8 Fe2 Co2 O24'
_cell_volume   515.03014054
_cell_formula_units_Z   2
loop_
 _symmetry_equiv_pos_site_id
 _symmetry_equiv_pos_as_xyz
  1  'x, y, z'
loop_
 _atom_site_type_symbol
 _atom_site_label
 _atom_site_symmetry_multiplicity
 _atom_site_fract_x
 _atom_site_fract_y
 _atom_site_fract_z
 _atom_site_occupancy
  V  V0  1  0.20368900  0.41060800  0.99293200  1
  V  V1  1  0.79631100  0.41060800  0.00706800  1
  V  V2  1  0.20132900  0.59010900  0.48922300  1
  V  V3  1  0.79867100  0.59010900  0.51077700  1
  V  V4  1  0.70368900  0.91060800  0.99293200  1
  V  V5  1  0.29631100  0.91060800  0.00706800  1
  V  V6  1  0.70132900  0.09010900  0.48922300  1
  V  V7  1  0.29867100  0.09010900  0.51077700  1
  Fe  Fe8  1  0.00000000  0.08683600  0.00000000  1
  Fe  Fe9  1  0.50000000  0.58683600  0.00000000  1
  Co  Co10  1  0.00000000  0.91310750  0.50000000  1
  Co  Co11  1  0.50000000  0.41310750  0.50000000  1
  O  O12  1  0.38096850  0.57747550  0.60135600  1
  O  O13  1  0.61903150  0.57747550  0.39864400  1
  O  O14  1  0.14494400  0.76456500  0.47147000  1
  O  O15  1  0.85505600  0.76456500  0.52853000  1
  O  O16  1  0.38383550  0.42244150  0.11720800  1
  O  O17  1  0.61616450  0.42244150  0.88279200  1
  O  O18  1  0.14125600  0.49200800  0.69660600  1
  O  O19  1  0.85874400  0.49200800  0.30339400  1
  O  O20  1  0.13731100  0.50841600  0.19294200  1
  O  O21  1  0.86268900  0.50841600  0.80705800  1
  O  O22  1  0.14880900  0.23658800  0.97213500  1
  O  O23  1  0.85119100  0.23658800  0.02786500  1
  O  O24  1  0.88096850  0.07747550  0.60135600  1
  O  O25  1  0.11903150  0.07747550  0.39864400  1
  O  O26  1  0.64494400  0.26456500  0.47147000  1
  O  O27  1  0.35505600  0.26456500  0.52853000  1
  O  O28  1  0.88383550  0.92244150  0.11720800  1
  O  O29  1  0.11616450  0.92244150  0.88279200  1
  O  O30  1  0.64125600  0.99200800  0.69660600  1
  O  O31  1  0.35874400  0.99200800  0.30339400  1
  O  O32  1  0.63731100  0.00841600  0.19294200  1
  O  O33  1  0.36268900  0.00841600  0.80705800  1
  O  O34  1  0.64880900  0.73658800  0.97213500  1
  O  O35  1  0.35119100  0.73658800  0.02786500  1
