# generated using pymatgen
data_MgTi23O40
_symmetry_space_group_name_H-M   'P 1'
_cell_length_a   10.60845200
_cell_length_b   20.11467200
_cell_length_c   7.62038554
_cell_angle_alpha   90.00000000
_cell_angle_beta   111.08946335
_cell_angle_gamma   90.00000000
_symmetry_Int_Tables_number   1
_chemical_formula_structural   MgTi23O40
_chemical_formula_sum   'Mg2 Ti46 O80'
_cell_volume   1517.16473385
_cell_formula_units_Z   2
loop_
 _symmetry_equiv_pos_site_id
 _symmetry_equiv_pos_as_xyz
  1  'x, y, z'
loop_
 _atom_site_type_symbol
 _atom_site_label
 _atom_site_symmetry_multiplicity
 _atom_site_fract_x
 _atom_site_fract_y
 _atom_site_fract_z
 _atom_site_occupancy
  Mg  Mg0  1  0.57158500  0.00000000  0.59898600  1
  Mg  Mg1  1  0.07158500  0.50000000  0.59898600  1
  Ti  Ti2  1  0.24094350  0.40393050  0.93092800  1
  Ti  Ti3  1  0.24070550  0.40352650  0.43492900  1
  Ti  Ti4  1  0.57322500  0.00000000  0.09870500  1
  Ti  Ti5  1  0.50865150  0.15381250  0.06676200  1
  Ti  Ti6  1  0.51076500  0.15501100  0.56822500  1
  Ti  Ti7  1  0.24108350  0.09612650  0.93346200  1
  Ti  Ti8  1  0.24150850  0.09391350  0.43352000  1
  Ti  Ti9  1  0.74150850  0.40608650  0.43352000  1
  Ti  Ti10  1  0.74108350  0.40387350  0.93346200  1
  Ti  Ti11  1  0.17959100  0.25078000  0.40112600  1
  Ti  Ti12  1  0.17961550  0.25056250  0.90272400  1
  Ti  Ti13  1  0.07072700  0.00000000  0.09669300  1
  Ti  Ti14  1  0.07045800  0.00000000  0.59920300  1
  Ti  Ti15  1  0.01076500  0.34498900  0.56822500  1
  Ti  Ti16  1  0.00865150  0.34618750  0.06676200  1
  Ti  Ti17  1  0.00707950  0.15587750  0.56649000  1
  Ti  Ti18  1  0.00708850  0.15429050  0.06586600  1
  Ti  Ti19  1  0.74094350  0.09606950  0.93092800  1
  Ti  Ti20  1  0.74070550  0.09647350  0.43492900  1
  Ti  Ti21  1  0.67959100  0.24922000  0.40112600  1
  Ti  Ti22  1  0.67961550  0.24943750  0.90272400  1
  Ti  Ti23  1  0.50708850  0.34570950  0.06586600  1
  Ti  Ti24  1  0.50707950  0.34412250  0.56649000  1
  Ti  Ti25  1  0.74094350  0.90393050  0.93092800  1
  Ti  Ti26  1  0.74070550  0.90352650  0.43492900  1
  Ti  Ti27  1  0.07322500  0.50000000  0.09870500  1
  Ti  Ti28  1  0.00865150  0.65381250  0.06676200  1
  Ti  Ti29  1  0.01076500  0.65501100  0.56822500  1
  Ti  Ti30  1  0.74108350  0.59612650  0.93346200  1
  Ti  Ti31  1  0.74150850  0.59391350  0.43352000  1
  Ti  Ti32  1  0.24150850  0.90608650  0.43352000  1
  Ti  Ti33  1  0.24108350  0.90387350  0.93346200  1
  Ti  Ti34  1  0.67959100  0.75078000  0.40112600  1
  Ti  Ti35  1  0.67961550  0.75056250  0.90272400  1
  Ti  Ti36  1  0.57072700  0.50000000  0.09669300  1
  Ti  Ti37  1  0.57045800  0.50000000  0.59920300  1
  Ti  Ti38  1  0.51076500  0.84498900  0.56822500  1
  Ti  Ti39  1  0.50865150  0.84618750  0.06676200  1
  Ti  Ti40  1  0.50707950  0.65587750  0.56649000  1
  Ti  Ti41  1  0.50708850  0.65429050  0.06586600  1
  Ti  Ti42  1  0.24094350  0.59606950  0.93092800  1
  Ti  Ti43  1  0.24070550  0.59647350  0.43492900  1
  Ti  Ti44  1  0.17959100  0.74922000  0.40112600  1
  Ti  Ti45  1  0.17961550  0.74943750  0.90272400  1
  Ti  Ti46  1  0.00708850  0.84570950  0.06586600  1
  Ti  Ti47  1  0.00707950  0.84412250  0.56649000  1
  O  O48  1  0.18837150  0.40782950  0.15681900  1
  O  O49  1  0.18782600  0.40822800  0.65633200  1
  O  O50  1  0.64778300  0.00000000  0.37732200  1
  O  O51  1  0.64700900  0.00000000  0.89555700  1
  O  O52  1  0.55884650  0.16093950  0.84316000  1
  O  O53  1  0.56183900  0.16062300  0.34240400  1
  O  O54  1  0.42059800  0.06910300  0.52289100  1
  O  O55  1  0.42612700  0.06454400  0.02527200  1
  O  O56  1  0.92612700  0.43545600  0.02527200  1
  O  O57  1  0.92059800  0.43089700  0.52289100  1
  O  O58  1  0.32639800  0.31314700  0.47577100  1
  O  O59  1  0.32582650  0.31356650  0.97576900  1
  O  O60  1  0.32502950  0.18508350  0.97585200  1
  O  O61  1  0.32554600  0.18384600  0.47447800  1
  O  O62  1  0.68994100  0.40887300  0.65652600  1
  O  O63  1  0.68988950  0.40858650  0.15829500  1
  O  O64  1  0.18994100  0.09112700  0.65652600  1
  O  O65  1  0.18988950  0.09141350  0.15829500  1
  O  O66  1  0.14082900  0.00000000  0.88309600  1
  O  O67  1  0.14144300  0.00000000  0.38318900  1
  O  O68  1  0.11181550  0.24870250  0.61850800  1
  O  O69  1  0.10898000  0.25028600  0.11665300  1
  O  O70  1  0.06312950  0.16086650  0.34372700  1
  O  O71  1  0.05929600  0.16049200  0.84263700  1
  O  O72  1  0.05884650  0.33906050  0.84316000  1
  O  O73  1  0.06183900  0.33937700  0.34240400  1
  O  O74  1  0.92492450  0.06592350  0.52348900  1
  O  O75  1  0.92527250  0.06463250  0.02529400  1
  O  O76  1  0.42492450  0.43407650  0.52348900  1
  O  O77  1  0.42527250  0.43536750  0.02529400  1
  O  O78  1  0.82502950  0.31491650  0.97585200  1
  O  O79  1  0.82554600  0.31615400  0.47447800  1
  O  O80  1  0.82582650  0.18643350  0.97576900  1
  O  O81  1  0.82639800  0.18685300  0.47577100  1
  O  O82  1  0.68837150  0.09217050  0.15681900  1
  O  O83  1  0.68782600  0.09177200  0.65633200  1
  O  O84  1  0.61181550  0.25129750  0.61850800  1
  O  O85  1  0.60898000  0.24971400  0.11665300  1
  O  O86  1  0.56312950  0.33913350  0.34372700  1
  O  O87  1  0.55929600  0.33950800  0.84263700  1
  O  O88  1  0.68837150  0.90782950  0.15681900  1
  O  O89  1  0.68782600  0.90822800  0.65633200  1
  O  O90  1  0.14778300  0.50000000  0.37732200  1
  O  O91  1  0.14700900  0.50000000  0.89555700  1
  O  O92  1  0.05884650  0.66093950  0.84316000  1
  O  O93  1  0.06183900  0.66062300  0.34240400  1
  O  O94  1  0.92059800  0.56910300  0.52289100  1
  O  O95  1  0.92612700  0.56454400  0.02527200  1
  O  O96  1  0.42612700  0.93545600  0.02527200  1
  O  O97  1  0.42059800  0.93089700  0.52289100  1
  O  O98  1  0.82639800  0.81314700  0.47577100  1
  O  O99  1  0.82582650  0.81356650  0.97576900  1
  O  O100  1  0.82502950  0.68508350  0.97585200  1
  O  O101  1  0.82554600  0.68384600  0.47447800  1
  O  O102  1  0.18994100  0.90887300  0.65652600  1
  O  O103  1  0.18988950  0.90858650  0.15829500  1
  O  O104  1  0.68994100  0.59112700  0.65652600  1
  O  O105  1  0.68988950  0.59141350  0.15829500  1
  O  O106  1  0.64082900  0.50000000  0.88309600  1
  O  O107  1  0.64144300  0.50000000  0.38318900  1
  O  O108  1  0.61181550  0.74870250  0.61850800  1
  O  O109  1  0.60898000  0.75028600  0.11665300  1
  O  O110  1  0.56312950  0.66086650  0.34372700  1
  O  O111  1  0.55929600  0.66049200  0.84263700  1
  O  O112  1  0.55884650  0.83906050  0.84316000  1
  O  O113  1  0.56183900  0.83937700  0.34240400  1
  O  O114  1  0.42492450  0.56592350  0.52348900  1
  O  O115  1  0.42527250  0.56463250  0.02529400  1
  O  O116  1  0.92492450  0.93407650  0.52348900  1
  O  O117  1  0.92527250  0.93536750  0.02529400  1
  O  O118  1  0.32502950  0.81491650  0.97585200  1
  O  O119  1  0.32554600  0.81615400  0.47447800  1
  O  O120  1  0.32582650  0.68643350  0.97576900  1
  O  O121  1  0.32639800  0.68685300  0.47577100  1
  O  O122  1  0.18837150  0.59217050  0.15681900  1
  O  O123  1  0.18782600  0.59177200  0.65633200  1
  O  O124  1  0.11181550  0.75129750  0.61850800  1
  O  O125  1  0.10898000  0.74971400  0.11665300  1
  O  O126  1  0.06312950  0.83913350  0.34372700  1
  O  O127  1  0.05929600  0.83950800  0.84263700  1
