# generated using pymatgen
data_Mn3OF5
_symmetry_space_group_name_H-M   'P 1'
_cell_length_a   9.41102800
_cell_length_b   7.07356400
_cell_length_c   7.50540006
_cell_angle_alpha   90.00000000
_cell_angle_beta   110.58127367
_cell_angle_gamma   90.00000000
_symmetry_Int_Tables_number   1
_chemical_formula_structural   Mn3OF5
_chemical_formula_sum   'Mn12 O4 F20'
_cell_volume   467.74160058
_cell_formula_units_Z   4
loop_
 _symmetry_equiv_pos_site_id
 _symmetry_equiv_pos_as_xyz
  1  'x, y, z'
loop_
 _atom_site_type_symbol
 _atom_site_label
 _atom_site_symmetry_multiplicity
 _atom_site_fract_x
 _atom_site_fract_y
 _atom_site_fract_z
 _atom_site_occupancy
  Mn  Mn0  1  0.17195600  0.50000000  0.15464200  1
  Mn  Mn1  1  0.84022500  0.50000000  0.34632100  1
  Mn  Mn2  1  0.15826700  0.50000000  0.68072200  1
  Mn  Mn3  1  0.83956500  0.50000000  0.82514200  1
  Mn  Mn4  1  0.49752900  0.50000000  0.50253600  1
  Mn  Mn5  1  0.48838200  0.50000000  0.00189300  1
  Mn  Mn6  1  0.67195600  0.00000000  0.15464200  1
  Mn  Mn7  1  0.34022500  0.00000000  0.34632100  1
  Mn  Mn8  1  0.65826700  0.00000000  0.68072200  1
  Mn  Mn9  1  0.33956500  0.00000000  0.82514200  1
  Mn  Mn10  1  0.99752900  0.00000000  0.50253600  1
  Mn  Mn11  1  0.98838200  0.00000000  0.00189300  1
  O  O12  1  0.25802700  0.50000000  0.95462100  1
  O  O13  1  0.94729500  0.50000000  0.63532800  1
  O  O14  1  0.75802700  0.00000000  0.95462100  1
  O  O15  1  0.44729500  0.00000000  0.63532800  1
  F  F16  1  0.83189300  0.19659100  0.32618700  1
  F  F17  1  0.16816100  0.19225900  0.66412900  1
  F  F18  1  0.37930400  0.50000000  0.69397600  1
  F  F19  1  0.08191700  0.50000000  0.37533500  1
  F  F20  1  0.73197600  0.50000000  0.03581000  1
  F  F21  1  0.60334600  0.50000000  0.29857200  1
  F  F22  1  0.16816100  0.80774100  0.66412900  1
  F  F23  1  0.83189300  0.80340900  0.32618700  1
  F  F24  1  0.00105150  0.30331950  0.00723400  1
  F  F25  1  0.00105150  0.69668050  0.00723400  1
  F  F26  1  0.33189300  0.69659100  0.32618700  1
  F  F27  1  0.66816100  0.69225900  0.66412900  1
  F  F28  1  0.87930400  0.00000000  0.69397600  1
  F  F29  1  0.58191700  0.00000000  0.37533500  1
  F  F30  1  0.23197600  0.00000000  0.03581000  1
  F  F31  1  0.10334600  0.00000000  0.29857200  1
  F  F32  1  0.66816100  0.30774100  0.66412900  1
  F  F33  1  0.33189300  0.30340900  0.32618700  1
  F  F34  1  0.50105150  0.80331950  0.00723400  1
  F  F35  1  0.50105150  0.19668050  0.00723400  1
