# generated using pymatgen
data_P4WO12
_symmetry_space_group_name_H-M   'P 1'
_cell_length_a   17.18526800
_cell_length_b   12.38900400
_cell_length_c   5.38011687
_cell_angle_alpha   90.00000000
_cell_angle_beta   100.53735345
_cell_angle_gamma   90.00000000
_symmetry_Int_Tables_number   1
_chemical_formula_structural   P4WO12
_chemical_formula_sum   'P16 W4 O48'
_cell_volume   1126.15446689
_cell_formula_units_Z   4
loop_
 _symmetry_equiv_pos_site_id
 _symmetry_equiv_pos_as_xyz
  1  'x, y, z'
loop_
 _atom_site_type_symbol
 _atom_site_label
 _atom_site_symmetry_multiplicity
 _atom_site_fract_x
 _atom_site_fract_y
 _atom_site_fract_z
 _atom_site_occupancy
  P  P0  1  0.57397450  0.79328750  0.18106300  1
  P  P1  1  0.57397450  0.20671250  0.18106300  1
  P  P2  1  0.82404300  0.12179200  0.53882700  1
  P  P3  1  0.82404300  0.87820800  0.53882700  1
  P  P4  1  0.17595700  0.12179200  0.46117300  1
  P  P5  1  0.17595700  0.87820800  0.46117300  1
  P  P6  1  0.42602550  0.20671250  0.81893700  1
  P  P7  1  0.42602550  0.79328750  0.81893700  1
  P  P8  1  0.07397450  0.29328750  0.18106300  1
  P  P9  1  0.07397450  0.70671250  0.18106300  1
  P  P10  1  0.32404300  0.62179200  0.53882700  1
  P  P11  1  0.32404300  0.37820800  0.53882700  1
  P  P12  1  0.67595700  0.62179200  0.46117300  1
  P  P13  1  0.67595700  0.37820800  0.46117300  1
  P  P14  1  0.92602550  0.70671250  0.81893700  1
  P  P15  1  0.92602550  0.29328750  0.81893700  1
  W  W16  1  0.25000000  0.75000000  0.00000000  1
  W  W17  1  0.25000000  0.25000000  0.00000000  1
  W  W18  1  0.75000000  0.25000000  0.00000000  1
  W  W19  1  0.75000000  0.75000000  0.00000000  1
  O  O20  1  0.63979800  0.20059700  0.01996300  1
  O  O21  1  0.63979800  0.79940300  0.01996300  1
  O  O22  1  0.50000000  0.26413600  0.00000000  1
  O  O23  1  0.50000000  0.73586400  0.00000000  1
  O  O24  1  0.79905550  0.13179350  0.25339700  1
  O  O25  1  0.79905550  0.86820650  0.25339700  1
  O  O26  1  0.55676950  0.88757750  0.32194200  1
  O  O27  1  0.55676950  0.11242250  0.32194200  1
  O  O28  1  0.59698450  0.31458050  0.36858700  1
  O  O29  1  0.59698450  0.68541950  0.36858700  1
  O  O30  1  0.85363900  0.00000000  0.59218900  1
  O  O31  1  0.23956200  0.85154300  0.31140200  1
  O  O32  1  0.23956200  0.14845700  0.31140200  1
  O  O33  1  0.76043800  0.14845700  0.68859800  1
  O  O34  1  0.76043800  0.85154300  0.68859800  1
  O  O35  1  0.14636100  0.00000000  0.40781100  1
  O  O36  1  0.40301550  0.31458050  0.63141300  1
  O  O37  1  0.40301550  0.68541950  0.63141300  1
  O  O38  1  0.44323050  0.88757750  0.67805800  1
  O  O39  1  0.44323050  0.11242250  0.67805800  1
  O  O40  1  0.20094450  0.13179350  0.74660300  1
  O  O41  1  0.20094450  0.86820650  0.74660300  1
  O  O42  1  0.36020200  0.79940300  0.98003700  1
  O  O43  1  0.36020200  0.20059700  0.98003700  1
  O  O44  1  0.13979800  0.70059700  0.01996300  1
  O  O45  1  0.13979800  0.29940300  0.01996300  1
  O  O46  1  0.00000000  0.76413600  0.00000000  1
  O  O47  1  0.00000000  0.23586400  0.00000000  1
  O  O48  1  0.29905550  0.63179350  0.25339700  1
  O  O49  1  0.29905550  0.36820650  0.25339700  1
  O  O50  1  0.05676950  0.38757750  0.32194200  1
  O  O51  1  0.05676950  0.61242250  0.32194200  1
  O  O52  1  0.09698450  0.81458050  0.36858700  1
  O  O53  1  0.09698450  0.18541950  0.36858700  1
  O  O54  1  0.35363900  0.50000000  0.59218900  1
  O  O55  1  0.73956200  0.35154300  0.31140200  1
  O  O56  1  0.73956200  0.64845700  0.31140200  1
  O  O57  1  0.26043800  0.64845700  0.68859800  1
  O  O58  1  0.26043800  0.35154300  0.68859800  1
  O  O59  1  0.64636100  0.50000000  0.40781100  1
  O  O60  1  0.90301550  0.81458050  0.63141300  1
  O  O61  1  0.90301550  0.18541950  0.63141300  1
  O  O62  1  0.94323050  0.38757750  0.67805800  1
  O  O63  1  0.94323050  0.61242250  0.67805800  1
  O  O64  1  0.70094450  0.63179350  0.74660300  1
  O  O65  1  0.70094450  0.36820650  0.74660300  1
  O  O66  1  0.86020200  0.29940300  0.98003700  1
  O  O67  1  0.86020200  0.70059700  0.98003700  1
