# generated using pymatgen
data_LiCrCO4
_symmetry_space_group_name_H-M   'P 1'
_cell_length_a   3.10487482
_cell_length_b   9.33751003
_cell_length_c   9.38454520
_cell_angle_alpha   90.00000000
_cell_angle_beta   90.00000000
_cell_angle_gamma   90.00000000
_symmetry_Int_Tables_number   1
_chemical_formula_structural   LiCrCO4
_chemical_formula_sum   'Li4 Cr4 C4 O16'
_cell_volume   272.07485540
_cell_formula_units_Z   4
loop_
 _symmetry_equiv_pos_site_id
 _symmetry_equiv_pos_as_xyz
  1  'x, y, z'
loop_
 _atom_site_type_symbol
 _atom_site_label
 _atom_site_symmetry_multiplicity
 _atom_site_fract_x
 _atom_site_fract_y
 _atom_site_fract_z
 _atom_site_occupancy
  Li  Li0  1  0.75000000  0.80681250  0.40786150  1
  Li  Li1  1  0.75000000  0.69318750  0.90786150  1
  Li  Li2  1  0.25000000  0.30681250  0.09213850  1
  Li  Li3  1  0.25000000  0.19318750  0.59213850  1
  Cr  Cr4  1  0.75000000  0.43996850  0.37972850  1
  Cr  Cr5  1  0.75000000  0.06003150  0.87972850  1
  Cr  Cr6  1  0.25000000  0.93996850  0.12027150  1
  Cr  Cr7  1  0.25000000  0.56003150  0.62027150  1
  C  C8  1  0.75000000  0.13172050  0.33305550  1
  C  C9  1  0.75000000  0.36827950  0.83305550  1
  C  C10  1  0.25000000  0.63172050  0.16694450  1
  C  C11  1  0.25000000  0.86827950  0.66694450  1
  O  O12  1  0.75000000  0.00732050  0.25871950  1
  O  O13  1  0.75000000  0.61327350  0.49966150  1
  O  O14  1  0.75000000  0.25085950  0.25991350  1
  O  O15  1  0.75000000  0.49267950  0.75871950  1
  O  O16  1  0.75000000  0.88672650  0.99966150  1
  O  O17  1  0.75000000  0.24914050  0.75991350  1
  O  O18  1  0.75000000  0.12714550  0.46599650  1
  O  O19  1  0.75000000  0.37285450  0.96599650  1
  O  O20  1  0.25000000  0.62714550  0.03400350  1
  O  O21  1  0.25000000  0.87285450  0.53400350  1
  O  O22  1  0.25000000  0.75085950  0.24008650  1
  O  O23  1  0.25000000  0.11327350  0.00033850  1
  O  O24  1  0.25000000  0.50732050  0.24128050  1
  O  O25  1  0.25000000  0.74914050  0.74008650  1
  O  O26  1  0.25000000  0.38672650  0.50033850  1
  O  O27  1  0.25000000  0.99267950  0.74128050  1
