# generated using pymatgen
data_Li3V(CoO2)4
_symmetry_space_group_name_H-M   'P 1'
_cell_length_a   10.17569400
_cell_length_b   5.99607800
_cell_length_c   5.99557810
_cell_angle_alpha   90.00000000
_cell_angle_beta   126.16099603
_cell_angle_gamma   90.00000000
_symmetry_Int_Tables_number   1
_chemical_formula_structural   Li3V(CoO2)4
_chemical_formula_sum   'Li6 V2 Co8 O16'
_cell_volume   295.34578545
_cell_formula_units_Z   2
loop_
 _symmetry_equiv_pos_site_id
 _symmetry_equiv_pos_as_xyz
  1  'x, y, z'
loop_
 _atom_site_type_symbol
 _atom_site_label
 _atom_site_symmetry_multiplicity
 _atom_site_fract_x
 _atom_site_fract_y
 _atom_site_fract_z
 _atom_site_occupancy
  Li  Li0  1  0.25000000  0.25000000  0.50000000  1
  Li  Li1  1  0.00000000  0.00000000  0.50000000  1
  Li  Li2  1  0.75000000  0.25000000  0.50000000  1
  Li  Li3  1  0.75000000  0.75000000  0.50000000  1
  Li  Li4  1  0.50000000  0.50000000  0.50000000  1
  Li  Li5  1  0.25000000  0.75000000  0.50000000  1
  V  V6  1  0.00000000  0.50000000  0.00000000  1
  V  V7  1  0.50000000  0.00000000  0.00000000  1
  Co  Co8  1  0.50000000  0.00000000  0.50000000  1
  Co  Co9  1  0.00000000  0.00000000  0.00000000  1
  Co  Co10  1  0.75000000  0.75000000  0.00000000  1
  Co  Co11  1  0.75000000  0.25000000  0.00000000  1
  Co  Co12  1  0.00000000  0.50000000  0.50000000  1
  Co  Co13  1  0.50000000  0.50000000  0.00000000  1
  Co  Co14  1  0.25000000  0.25000000  0.00000000  1
  Co  Co15  1  0.25000000  0.75000000  0.00000000  1
  O  O16  1  0.73034900  0.00000000  0.22988600  1
  O  O17  1  0.00345750  0.26034150  0.24195700  1
  O  O18  1  0.00345750  0.73965850  0.24195700  1
  O  O19  1  0.75028600  0.50000000  0.23885700  1
  O  O20  1  0.74971400  0.00000000  0.76114300  1
  O  O21  1  0.49654250  0.76034150  0.75804300  1
  O  O22  1  0.49654250  0.23965850  0.75804300  1
  O  O23  1  0.76965100  0.50000000  0.77011400  1
  O  O24  1  0.23034900  0.50000000  0.22988600  1
  O  O25  1  0.50345750  0.76034150  0.24195700  1
  O  O26  1  0.50345750  0.23965850  0.24195700  1
  O  O27  1  0.25028600  0.00000000  0.23885700  1
  O  O28  1  0.24971400  0.50000000  0.76114300  1
  O  O29  1  0.99654250  0.26034150  0.75804300  1
  O  O30  1  0.99654250  0.73965850  0.75804300  1
  O  O31  1  0.26965100  0.00000000  0.77011400  1
