# generated using pymatgen
data_NaMnBO3
_symmetry_space_group_name_H-M   'P 1'
_cell_length_a   5.17199845
_cell_length_b   9.07111641
_cell_length_c   5.87751163
_cell_angle_alpha   90.00000000
_cell_angle_beta   99.31794384
_cell_angle_gamma   90.00000000
_symmetry_Int_Tables_number   1
_chemical_formula_structural   NaMnBO3
_chemical_formula_sum   'Na4 Mn4 B4 O12'
_cell_volume   272.10967922
_cell_formula_units_Z   4
loop_
 _symmetry_equiv_pos_site_id
 _symmetry_equiv_pos_as_xyz
  1  'x, y, z'
loop_
 _atom_site_type_symbol
 _atom_site_label
 _atom_site_symmetry_multiplicity
 _atom_site_fract_x
 _atom_site_fract_y
 _atom_site_fract_z
 _atom_site_occupancy
  Na  Na0  1  0.50000000  0.83659950  0.75000000  1
  Na  Na1  1  0.00000000  0.66340050  0.25000000  1
  Na  Na2  1  0.00000000  0.33659950  0.75000000  1
  Na  Na3  1  0.50000000  0.16340050  0.25000000  1
  Mn  Mn4  1  0.00000000  0.00000000  0.00000000  1
  Mn  Mn5  1  0.00000000  0.00000000  0.50000000  1
  Mn  Mn6  1  0.50000000  0.50000000  0.00000000  1
  Mn  Mn7  1  0.50000000  0.50000000  0.50000000  1
  B  B8  1  0.00000000  0.66995900  0.75000000  1
  B  B9  1  0.50000000  0.83004100  0.25000000  1
  B  B10  1  0.50000000  0.16995900  0.75000000  1
  B  B11  1  0.00000000  0.33004100  0.25000000  1
  O  O12  1  0.00000000  0.82303375  0.75000000  1
  O  O13  1  0.50000000  0.67696625  0.25000000  1
  O  O14  1  0.78298925  0.59286675  0.79819200  1
  O  O15  1  0.21701075  0.59286675  0.70180800  1
  O  O16  1  0.28298925  0.90713325  0.29819200  1
  O  O17  1  0.71701075  0.90713325  0.20180800  1
  O  O18  1  0.50000000  0.32303375  0.75000000  1
  O  O19  1  0.00000000  0.17696625  0.25000000  1
  O  O20  1  0.28298925  0.09286675  0.79819200  1
  O  O21  1  0.71701075  0.09286675  0.70180800  1
  O  O22  1  0.78298925  0.40713325  0.29819200  1
  O  O23  1  0.21701075  0.40713325  0.20180800  1
