# generated using pymatgen
data_LiV2O4
_symmetry_space_group_name_H-M   'P 1'
_cell_length_a   5.87979400
_cell_length_b   6.05467600
_cell_length_c   8.35382400
_cell_angle_alpha   90.00000000
_cell_angle_beta   90.00000000
_cell_angle_gamma   90.00000000
_symmetry_Int_Tables_number   1
_chemical_formula_structural   LiV2O4
_chemical_formula_sum   'Li4 V8 O16'
_cell_volume   297.39820295
_cell_formula_units_Z   4
loop_
 _symmetry_equiv_pos_site_id
 _symmetry_equiv_pos_as_xyz
  1  'x, y, z'
loop_
 _atom_site_type_symbol
 _atom_site_label
 _atom_site_symmetry_multiplicity
 _atom_site_fract_x
 _atom_site_fract_y
 _atom_site_fract_z
 _atom_site_occupancy
  Li  Li0  1  0.25000000  0.25000000  0.25000000  1
  Li  Li1  1  0.75000000  0.25000000  0.25000000  1
  Li  Li2  1  0.75000000  0.75000000  0.75000000  1
  Li  Li3  1  0.25000000  0.75000000  0.75000000  1
  V  V4  1  0.00000000  0.00000000  0.00000000  1
  V  V5  1  0.50000000  0.00000000  0.50000000  1
  V  V6  1  0.00000000  0.25000000  0.62963100  1
  V  V7  1  0.00000000  0.75000000  0.37036900  1
  V  V8  1  0.50000000  0.50000000  0.50000000  1
  V  V9  1  0.00000000  0.50000000  0.00000000  1
  V  V10  1  0.50000000  0.75000000  0.12963100  1
  V  V11  1  0.50000000  0.25000000  0.87036900  1
  O  O12  1  0.25858500  0.25000000  0.49899600  1
  O  O13  1  0.50000000  0.98877800  0.26139900  1
  O  O14  1  0.00000000  0.01122200  0.76139900  1
  O  O15  1  0.25858500  0.75000000  0.50100400  1
  O  O16  1  0.74141500  0.25000000  0.49899600  1
  O  O17  1  0.00000000  0.98877800  0.23860100  1
  O  O18  1  0.50000000  0.01122200  0.73860100  1
  O  O19  1  0.74141500  0.75000000  0.50100400  1
  O  O20  1  0.75858500  0.75000000  0.99899600  1
  O  O21  1  0.00000000  0.48877800  0.76139900  1
  O  O22  1  0.50000000  0.51122200  0.26139900  1
  O  O23  1  0.75858500  0.25000000  0.00100400  1
  O  O24  1  0.24141500  0.75000000  0.99899600  1
  O  O25  1  0.50000000  0.48877800  0.73860100  1
  O  O26  1  0.00000000  0.51122200  0.23860100  1
  O  O27  1  0.24141500  0.25000000  0.00100400  1
