# generated using pymatgen
data_LiMnOF2
_symmetry_space_group_name_H-M   'P 1'
_cell_length_a   8.62270514
_cell_length_b   5.35632401
_cell_length_c   5.70436611
_cell_angle_alpha   90.00000000
_cell_angle_beta   125.69518493
_cell_angle_gamma   90.00000000
_symmetry_Int_Tables_number   1
_chemical_formula_structural   LiMnOF2
_chemical_formula_sum   'Li4 Mn4 O4 F8'
_cell_volume   213.96596268
_cell_formula_units_Z   4
loop_
 _symmetry_equiv_pos_site_id
 _symmetry_equiv_pos_as_xyz
  1  'x, y, z'
loop_
 _atom_site_type_symbol
 _atom_site_label
 _atom_site_symmetry_multiplicity
 _atom_site_fract_x
 _atom_site_fract_y
 _atom_site_fract_z
 _atom_site_occupancy
  Li  Li0  1  0.19667400  0.21265800  0.34318000  1
  Li  Li1  1  0.69667400  0.28734200  0.84318000  1
  Li  Li2  1  0.69667400  0.71265800  0.34318000  1
  Li  Li3  1  0.19667400  0.78734200  0.84318000  1
  Mn  Mn4  1  0.48674700  0.24720700  0.21335700  1
  Mn  Mn5  1  0.48674700  0.75279300  0.71335700  1
  Mn  Mn6  1  0.98674700  0.74720700  0.21335700  1
  Mn  Mn7  1  0.98674700  0.25279300  0.71335700  1
  O  O8  1  0.73382950  0.62875050  0.99666800  1
  O  O9  1  0.73382950  0.37124950  0.49666800  1
  O  O10  1  0.23382950  0.12875050  0.99666800  1
  O  O11  1  0.23382950  0.87124950  0.49666800  1
  F  F12  1  0.42607200  0.58218500  0.00992800  1
  F  F13  1  0.06401600  0.56941400  0.96520300  1
  F  F14  1  0.06401600  0.43058600  0.46520300  1
  F  F15  1  0.42607200  0.41781500  0.50992800  1
  F  F16  1  0.92607200  0.08218500  0.00992800  1
  F  F17  1  0.56401600  0.06941400  0.96520300  1
  F  F18  1  0.56401600  0.93058600  0.46520300  1
  F  F19  1  0.92607200  0.91781500  0.50992800  1
