# generated using pymatgen
data_Li2VO2F
_symmetry_space_group_name_H-M   'P 1'
_cell_length_a   5.17124715
_cell_length_b   2.94535077
_cell_length_c   7.31242545
_cell_angle_alpha   90.00000000
_cell_angle_beta   90.18120976
_cell_angle_gamma   90.00000000
_symmetry_Int_Tables_number   1
_chemical_formula_structural   Li2VO2F
_chemical_formula_sum   'Li4 V2 O4 F2'
_cell_volume   111.37599495
_cell_formula_units_Z   2
loop_
 _symmetry_equiv_pos_site_id
 _symmetry_equiv_pos_as_xyz
  1  'x, y, z'
loop_
 _atom_site_type_symbol
 _atom_site_label
 _atom_site_symmetry_multiplicity
 _atom_site_fract_x
 _atom_site_fract_y
 _atom_site_fract_z
 _atom_site_occupancy
  Li  Li0  1  0.08638450  0.25000000  0.66095150  1
  Li  Li1  1  0.91361550  0.75000000  0.33904850  1
  Li  Li2  1  0.73445000  0.25000000  0.01137300  1
  Li  Li3  1  0.26555000  0.75000000  0.98862700  1
  V  V4  1  0.57311500  0.75000000  0.66871100  1
  V  V5  1  0.42688500  0.25000000  0.33128900  1
  O  O6  1  0.73805100  0.25000000  0.51144800  1
  O  O7  1  0.26194900  0.75000000  0.48855200  1
  O  O8  1  0.57318600  0.75000000  0.17874700  1
  O  O9  1  0.42681400  0.25000000  0.82125300  1
  F  F10  1  0.91277750  0.75000000  0.83457650  1
  F  F11  1  0.08722250  0.25000000  0.16542350  1
