# generated using pymatgen
data_Mn3Ni3(TeO8)2
_symmetry_space_group_name_H-M   'P 1'
_cell_length_a   10.22780932
_cell_length_b   5.81191601
_cell_length_c   9.19070090
_cell_angle_alpha   90.00000000
_cell_angle_beta   91.95955995
_cell_angle_gamma   90.00000000
_symmetry_Int_Tables_number   1
_chemical_formula_structural   Mn3Ni3(TeO8)2
_chemical_formula_sum   'Mn6 Ni6 Te4 O32'
_cell_volume   546.00489906
_cell_formula_units_Z   2
loop_
 _symmetry_equiv_pos_site_id
 _symmetry_equiv_pos_as_xyz
  1  'x, y, z'
loop_
 _atom_site_type_symbol
 _atom_site_label
 _atom_site_symmetry_multiplicity
 _atom_site_fract_x
 _atom_site_fract_y
 _atom_site_fract_z
 _atom_site_occupancy
  Mn  Mn0  1  0.58582700  0.75184100  0.21131100  1
  Mn  Mn1  1  0.58582700  0.24815900  0.21131100  1
  Mn  Mn2  1  0.66853400  0.50000000  0.71331200  1
  Mn  Mn3  1  0.08582700  0.25184100  0.21131100  1
  Mn  Mn4  1  0.08582700  0.74815900  0.21131100  1
  Mn  Mn5  1  0.16853400  0.00000000  0.71331200  1
  Ni  Ni6  1  0.83101700  0.00000000  0.21078700  1
  Ni  Ni7  1  0.91623750  0.25244450  0.71022300  1
  Ni  Ni8  1  0.91623750  0.74755550  0.71022300  1
  Ni  Ni9  1  0.33101700  0.50000000  0.21078700  1
  Ni  Ni10  1  0.41623750  0.75244450  0.71022300  1
  Ni  Ni11  1  0.41623750  0.24755550  0.71022300  1
  Te  Te12  1  0.67149400  0.00000000  0.49022800  1
  Te  Te13  1  0.83638350  0.50000000  0.98486500  1
  Te  Te14  1  0.17149400  0.50000000  0.49022800  1
  Te  Te15  1  0.33638350  0.00000000  0.98486500  1
  O  O16  1  0.58936750  0.75555850  0.59619400  1
  O  O17  1  0.51992750  0.00000000  0.33663100  1
  O  O18  1  0.65696800  0.00000000  0.10782600  1
  O  O19  1  0.50790300  0.50000000  0.30514300  1
  O  O20  1  0.50423700  0.50000000  0.80272100  1
  O  O21  1  0.58936750  0.24444150  0.59619400  1
  O  O22  1  0.73369700  0.77201300  0.34637500  1
  O  O23  1  0.73369700  0.22798700  0.34637500  1
  O  O24  1  0.67107050  0.50000000  0.10174500  1
  O  O25  1  0.83768350  0.00000000  0.59204700  1
  O  O26  1  0.75055700  0.28151500  0.84673000  1
  O  O27  1  0.75055700  0.71848500  0.84673000  1
  O  O28  1  0.82865450  0.50000000  0.61414100  1
  O  O29  1  0.91769350  0.25450950  0.09520500  1
  O  O30  1  0.97923000  0.50000000  0.84420300  1
  O  O31  1  0.91769350  0.74549050  0.09520500  1
  O  O32  1  0.08936750  0.25555850  0.59619400  1
  O  O33  1  0.01992750  0.50000000  0.33663100  1
  O  O34  1  0.15696800  0.50000000  0.10782600  1
  O  O35  1  0.00790300  0.00000000  0.30514300  1
  O  O36  1  0.00423700  0.00000000  0.80272100  1
  O  O37  1  0.08936750  0.74444150  0.59619400  1
  O  O38  1  0.23369700  0.27201300  0.34637500  1
  O  O39  1  0.23369700  0.72798700  0.34637500  1
  O  O40  1  0.17107050  0.00000000  0.10174500  1
  O  O41  1  0.33768350  0.50000000  0.59204700  1
  O  O42  1  0.25055700  0.78151500  0.84673000  1
  O  O43  1  0.25055700  0.21848500  0.84673000  1
  O  O44  1  0.32865450  0.00000000  0.61414100  1
  O  O45  1  0.41769350  0.75450950  0.09520500  1
  O  O46  1  0.47923000  0.00000000  0.84420300  1
  O  O47  1  0.41769350  0.24549050  0.09520500  1
