# generated using pymatgen
data_LiMn4O8
_symmetry_space_group_name_H-M   'P 1'
_cell_length_a   10.15977200
_cell_length_b   5.85470400
_cell_length_c   5.83028126
_cell_angle_alpha   90.00000000
_cell_angle_beta   122.28974050
_cell_angle_gamma   90.00000000
_symmetry_Int_Tables_number   1
_chemical_formula_structural   LiMn4O8
_chemical_formula_sum   'Li2 Mn8 O16'
_cell_volume   293.16952409
_cell_formula_units_Z   2
loop_
 _symmetry_equiv_pos_site_id
 _symmetry_equiv_pos_as_xyz
  1  'x, y, z'
loop_
 _atom_site_type_symbol
 _atom_site_label
 _atom_site_symmetry_multiplicity
 _atom_site_fract_x
 _atom_site_fract_y
 _atom_site_fract_z
 _atom_site_occupancy
  Li  Li0  1  0.00000000  0.00000000  0.00000000  1
  Li  Li1  1  0.50000000  0.50000000  0.00000000  1
  Mn  Mn2  1  0.00000000  0.50000000  0.50000000  1
  Mn  Mn3  1  0.25000000  0.75000000  0.00000000  1
  Mn  Mn4  1  0.25000000  0.25000000  0.00000000  1
  Mn  Mn5  1  0.00000000  0.50000000  0.00000000  1
  Mn  Mn6  1  0.50000000  0.00000000  0.50000000  1
  Mn  Mn7  1  0.75000000  0.25000000  0.00000000  1
  Mn  Mn8  1  0.75000000  0.75000000  0.00000000  1
  Mn  Mn9  1  0.50000000  0.00000000  0.00000000  1
  O  O10  1  0.02356500  0.27728900  0.77624400  1
  O  O11  1  0.22631300  0.50000000  0.19990600  1
  O  O12  1  0.26243400  0.50000000  0.79997000  1
  O  O13  1  0.02356500  0.72271100  0.77624400  1
  O  O14  1  0.27368700  0.00000000  0.80009400  1
  O  O15  1  0.47643500  0.22271100  0.22375600  1
  O  O16  1  0.47643500  0.77728900  0.22375600  1
  O  O17  1  0.23756600  0.00000000  0.20003000  1
  O  O18  1  0.52356500  0.77728900  0.77624400  1
  O  O19  1  0.72631300  0.00000000  0.19990600  1
  O  O20  1  0.76243400  0.00000000  0.79997000  1
  O  O21  1  0.52356500  0.22271100  0.77624400  1
  O  O22  1  0.77368700  0.50000000  0.80009400  1
  O  O23  1  0.97643500  0.72271100  0.22375600  1
  O  O24  1  0.97643500  0.27728900  0.22375600  1
  O  O25  1  0.73756600  0.50000000  0.20003000  1
