# generated using pymatgen
data_Li3TiV2O6
_symmetry_space_group_name_H-M   'P 1'
_cell_length_a   13.16993882
_cell_length_b   2.94338510
_cell_length_c   6.01983518
_cell_angle_alpha   90.00000000
_cell_angle_beta   103.93498673
_cell_angle_gamma   90.00000000
_symmetry_Int_Tables_number   1
_chemical_formula_structural   Li3TiV2O6
_chemical_formula_sum   'Li6 Ti2 V4 O12'
_cell_volume   226.48640291
_cell_formula_units_Z   2
loop_
 _symmetry_equiv_pos_site_id
 _symmetry_equiv_pos_as_xyz
  1  'x, y, z'
loop_
 _atom_site_type_symbol
 _atom_site_label
 _atom_site_symmetry_multiplicity
 _atom_site_fract_x
 _atom_site_fract_y
 _atom_site_fract_z
 _atom_site_occupancy
  Li  Li0  1  0.50000000  0.50000000  0.00000000  1
  Li  Li1  1  0.83293650  0.50000000  0.67337150  1
  Li  Li2  1  0.66706350  0.00000000  0.32662850  1
  Li  Li3  1  0.00000000  0.00000000  0.00000000  1
  Li  Li4  1  0.33293650  0.00000000  0.67337150  1
  Li  Li5  1  0.16706350  0.50000000  0.32662850  1
  Ti  Ti6  1  0.50000000  0.50000000  0.50000000  1
  Ti  Ti7  1  0.00000000  0.00000000  0.50000000  1
  V  V8  1  0.66726450  0.00000000  0.83756150  1
  V  V9  1  0.83273550  0.50000000  0.16243850  1
  V  V10  1  0.16726450  0.50000000  0.83756150  1
  V  V11  1  0.33273550  0.00000000  0.16243850  1
  O  O12  1  0.34356750  0.50000000  0.41365650  1
  O  O13  1  0.65643250  0.50000000  0.58634350  1
  O  O14  1  0.66771700  0.50000000  0.07631200  1
  O  O15  1  0.83228300  0.00000000  0.92368800  1
  O  O16  1  0.50076950  0.00000000  0.73096550  1
  O  O17  1  0.49923050  0.00000000  0.26903450  1
  O  O18  1  0.84356750  0.00000000  0.41365650  1
  O  O19  1  0.15643250  0.00000000  0.58634350  1
  O  O20  1  0.16771700  0.00000000  0.07631200  1
  O  O21  1  0.33228300  0.50000000  0.92368800  1
  O  O22  1  0.00076950  0.50000000  0.73096550  1
  O  O23  1  0.99923050  0.50000000  0.26903450  1
