# generated using pymatgen
data_Mn3Co3(CuO8)2
_symmetry_space_group_name_H-M   'P 1'
_cell_length_a   9.82042083
_cell_length_b   5.68313668
_cell_length_c   8.87920624
_cell_angle_alpha   90.00000000
_cell_angle_beta   92.61600890
_cell_angle_gamma   90.00000000
_symmetry_Int_Tables_number   1
_chemical_formula_structural   Mn3Co3(CuO8)2
_chemical_formula_sum   'Mn6 Co6 Cu4 O32'
_cell_volume   495.03910889
_cell_formula_units_Z   2
loop_
 _symmetry_equiv_pos_site_id
 _symmetry_equiv_pos_as_xyz
  1  'x, y, z'
loop_
 _atom_site_type_symbol
 _atom_site_label
 _atom_site_symmetry_multiplicity
 _atom_site_fract_x
 _atom_site_fract_y
 _atom_site_fract_z
 _atom_site_occupancy
  Mn  Mn0  1  0.16968250  0.00000000  0.78605100  1
  Mn  Mn1  1  0.58272600  0.75353700  0.28777600  1
  Mn  Mn2  1  0.58272600  0.24646300  0.28777600  1
  Mn  Mn3  1  0.66968250  0.50000000  0.78605100  1
  Mn  Mn4  1  0.08272600  0.25353700  0.28777600  1
  Mn  Mn5  1  0.08272600  0.74646300  0.28777600  1
  Co  Co6  1  0.41762050  0.75031450  0.79266100  1
  Co  Co7  1  0.41762050  0.24968550  0.79266100  1
  Co  Co8  1  0.83352200  0.00000000  0.29365200  1
  Co  Co9  1  0.91762050  0.25031450  0.79266100  1
  Co  Co10  1  0.91762050  0.74968550  0.79266100  1
  Co  Co11  1  0.33352200  0.50000000  0.29365200  1
  Cu  Cu12  1  0.33339700  0.00000000  0.51325500  1
  Cu  Cu13  1  0.66543750  0.00000000  0.01079100  1
  Cu  Cu14  1  0.83339700  0.50000000  0.51325500  1
  Cu  Cu15  1  0.16543750  0.50000000  0.01079100  1
  O  O16  1  0.41728550  0.74217150  0.39460000  1
  O  O17  1  0.47544000  0.00000000  0.66687000  1
  O  O18  1  0.33824150  0.00000000  0.89857900  1
  O  O19  1  0.99521500  0.00000000  0.68304200  1
  O  O20  1  0.99460700  0.00000000  0.18188500  1
  O  O21  1  0.41728550  0.25782850  0.39460000  1
  O  O22  1  0.26050850  0.77405750  0.66499500  1
  O  O23  1  0.26050850  0.22594250  0.66499500  1
  O  O24  1  0.84435250  0.00000000  0.89212100  1
  O  O25  1  0.16620000  0.00000000  0.40011500  1
  O  O26  1  0.73901750  0.78625150  0.16148100  1
  O  O27  1  0.73901750  0.21374850  0.16148100  1
  O  O28  1  0.67014900  0.00000000  0.39980300  1
  O  O29  1  0.58278850  0.74843850  0.89590500  1
  O  O30  1  0.51170300  0.00000000  0.16376300  1
  O  O31  1  0.58278850  0.25156150  0.89590500  1
  O  O32  1  0.91728550  0.24217150  0.39460000  1
  O  O33  1  0.97544000  0.50000000  0.66687000  1
  O  O34  1  0.83824150  0.50000000  0.89857900  1
  O  O35  1  0.49521500  0.50000000  0.68304200  1
  O  O36  1  0.49460700  0.50000000  0.18188500  1
  O  O37  1  0.91728550  0.75782850  0.39460000  1
  O  O38  1  0.76050850  0.27405750  0.66499500  1
  O  O39  1  0.76050850  0.72594250  0.66499500  1
  O  O40  1  0.34435250  0.50000000  0.89212100  1
  O  O41  1  0.66620000  0.50000000  0.40011500  1
  O  O42  1  0.23901750  0.28625150  0.16148100  1
  O  O43  1  0.23901750  0.71374850  0.16148100  1
  O  O44  1  0.17014900  0.50000000  0.39980300  1
  O  O45  1  0.08278850  0.24843850  0.89590500  1
  O  O46  1  0.01170300  0.50000000  0.16376300  1
  O  O47  1  0.08278850  0.75156150  0.89590500  1
