# generated using pymatgen
data_Co3OF5
_symmetry_space_group_name_H-M   'P 1'
_cell_length_a   6.67698200
_cell_length_b   3.12716300
_cell_length_c   10.54007016
_cell_angle_alpha   90.00000000
_cell_angle_beta   108.41313111
_cell_angle_gamma   90.00000000
_symmetry_Int_Tables_number   1
_chemical_formula_structural   Co3OF5
_chemical_formula_sum   'Co6 O2 F10'
_cell_volume   208.80965279
_cell_formula_units_Z   2
loop_
 _symmetry_equiv_pos_site_id
 _symmetry_equiv_pos_as_xyz
  1  'x, y, z'
loop_
 _atom_site_type_symbol
 _atom_site_label
 _atom_site_symmetry_multiplicity
 _atom_site_fract_x
 _atom_site_fract_y
 _atom_site_fract_z
 _atom_site_occupancy
  Co  Co0  1  0.97633000  0.00000000  0.99298600  1
  Co  Co1  1  0.52245700  0.50000000  0.00609500  1
  Co  Co2  1  0.67399500  0.00000000  0.34959500  1
  Co  Co3  1  0.82722900  0.50000000  0.65313900  1
  Co  Co4  1  0.16592700  0.50000000  0.33166800  1
  Co  Co5  1  0.33396500  0.00000000  0.66862500  1
  O  O6  1  0.70480300  0.00000000  0.00309200  1
  O  O7  1  0.73319000  0.50000000  0.46674400  1
  F  F8  1  0.29556000  0.00000000  0.00069100  1
  F  F9  1  0.96806500  0.00000000  0.32741800  1
  F  F10  1  0.60509100  0.50000000  0.21617900  1
  F  F11  1  0.06692100  0.50000000  0.12414300  1
  F  F12  1  0.35980300  0.00000000  0.33054800  1
  F  F13  1  0.63780500  0.00000000  0.66765500  1
  F  F14  1  0.93404700  0.50000000  0.85963100  1
  F  F15  1  0.26811000  0.50000000  0.53608500  1
  F  F16  1  0.39824900  0.50000000  0.80093700  1
  F  F17  1  0.02845000  0.00000000  0.66476800  1
