# generated using pymatgen
data_Mn3CuO8
_symmetry_space_group_name_H-M   'P 1'
_cell_length_a   5.86096374
_cell_length_b   5.86096374
_cell_length_c   14.27394180
_cell_angle_alpha   90.00000000
_cell_angle_beta   90.00000000
_cell_angle_gamma   120.00000000
_symmetry_Int_Tables_number   1
_chemical_formula_structural   Mn3CuO8
_chemical_formula_sum   'Mn9 Cu3 O24'
_cell_volume   424.63190574
_cell_formula_units_Z   3
loop_
 _symmetry_equiv_pos_site_id
 _symmetry_equiv_pos_as_xyz
  1  'x, y, z'
loop_
 _atom_site_type_symbol
 _atom_site_label
 _atom_site_symmetry_multiplicity
 _atom_site_fract_x
 _atom_site_fract_y
 _atom_site_fract_z
 _atom_site_occupancy
  Mn  Mn0  1  0.16666667  0.33333333  0.33333333  1
  Mn  Mn1  1  0.00000000  0.50000000  0.00000000  1
  Mn  Mn2  1  0.50000000  0.50000000  0.00000000  1
  Mn  Mn3  1  0.83333333  0.66666667  0.66666667  1
  Mn  Mn4  1  0.66666667  0.83333333  0.33333333  1
  Mn  Mn5  1  0.16666667  0.83333333  0.33333333  1
  Mn  Mn6  1  0.50000000  0.00000000  0.00000000  1
  Mn  Mn7  1  0.33333333  0.16666667  0.66666667  1
  Mn  Mn8  1  0.83333333  0.16666667  0.66666667  1
  Cu  Cu9  1  0.00000000  0.00000000  0.00000000  1
  Cu  Cu10  1  0.66666667  0.33333333  0.33333333  1
  Cu  Cu11  1  0.33333333  0.66666667  0.66666667  1
  O  O12  1  0.33333333  0.66666667  0.93227167  1
  O  O13  1  0.49774133  0.99548267  0.26577267  1
  O  O14  1  0.00451733  0.50225867  0.26577267  1
  O  O15  1  0.33333333  0.66666667  0.40106167  1
  O  O16  1  0.49774133  0.50225867  0.26577267  1
  O  O17  1  0.16892533  0.33785067  0.06756067  1
  O  O18  1  0.66214933  0.83107467  0.06756067  1
  O  O19  1  0.16892533  0.83107467  0.06756067  1
  O  O20  1  0.00000000  0.00000000  0.26560500  1
  O  O21  1  0.16440800  0.32881600  0.59910600  1
  O  O22  1  0.67118400  0.83559200  0.59910600  1
  O  O23  1  0.00000000  0.00000000  0.73439500  1
  O  O24  1  0.16440800  0.83559200  0.59910600  1
  O  O25  1  0.83559200  0.67118400  0.40089400  1
  O  O26  1  0.32881600  0.16440800  0.40089400  1
  O  O27  1  0.83559200  0.16440800  0.40089400  1
  O  O28  1  0.66666667  0.33333333  0.59893833  1
  O  O29  1  0.83107467  0.66214933  0.93243933  1
  O  O30  1  0.33785067  0.16892533  0.93243933  1
  O  O31  1  0.66666667  0.33333333  0.06772833  1
  O  O32  1  0.83107467  0.16892533  0.93243933  1
  O  O33  1  0.50225867  0.00451733  0.73422733  1
  O  O34  1  0.99548267  0.49774133  0.73422733  1
  O  O35  1  0.50225867  0.49774133  0.73422733  1
