# generated using pymatgen
data_V4FeO12
_symmetry_space_group_name_H-M   'P 1'
_cell_length_a   10.16106600
_cell_length_b   8.95375400
_cell_length_c   6.05675675
_cell_angle_alpha   90.00000000
_cell_angle_beta   110.29763127
_cell_angle_gamma   90.00000000
_symmetry_Int_Tables_number   1
_chemical_formula_structural   V4FeO12
_chemical_formula_sum   'V8 Fe2 O24'
_cell_volume   516.82393150
_cell_formula_units_Z   2
loop_
 _symmetry_equiv_pos_site_id
 _symmetry_equiv_pos_as_xyz
  1  'x, y, z'
loop_
 _atom_site_type_symbol
 _atom_site_label
 _atom_site_symmetry_multiplicity
 _atom_site_fract_x
 _atom_site_fract_y
 _atom_site_fract_z
 _atom_site_occupancy
  V  V0  1  0.20868750  0.41269350  0.00033800  1
  V  V1  1  0.20048650  0.58806350  0.48017700  1
  V  V2  1  0.79131250  0.41269350  0.99966200  1
  V  V3  1  0.79951350  0.58806350  0.51982300  1
  V  V4  1  0.70868750  0.91269350  0.00033800  1
  V  V5  1  0.70048650  0.08806350  0.48017700  1
  V  V6  1  0.29131250  0.91269350  0.99966200  1
  V  V7  1  0.29951350  0.08806350  0.51982300  1
  Fe  Fe8  1  0.00000000  0.91806000  0.50000000  1
  Fe  Fe9  1  0.50000000  0.41806000  0.50000000  1
  O  O10  1  0.38730700  0.41323200  0.15466200  1
  O  O11  1  0.16443050  0.23477350  0.96780800  1
  O  O12  1  0.37643700  0.58386700  0.54914900  1
  O  O13  1  0.13016200  0.49523400  0.20012300  1
  O  O14  1  0.83556950  0.23477350  0.03219200  1
  O  O15  1  0.15681000  0.49547700  0.70790300  1
  O  O16  1  0.86983800  0.49523400  0.79987700  1
  O  O17  1  0.13602700  0.76667600  0.45415700  1
  O  O18  1  0.84319000  0.49547700  0.29209700  1
  O  O19  1  0.61269300  0.41323200  0.84533800  1
  O  O20  1  0.86397300  0.76667600  0.54584300  1
  O  O21  1  0.62356300  0.58386700  0.45085100  1
  O  O22  1  0.88730700  0.91323200  0.15466200  1
  O  O23  1  0.66443050  0.73477350  0.96780800  1
  O  O24  1  0.87643700  0.08386700  0.54914900  1
  O  O25  1  0.63016200  0.99523400  0.20012300  1
  O  O26  1  0.33556950  0.73477350  0.03219200  1
  O  O27  1  0.65681000  0.99547700  0.70790300  1
  O  O28  1  0.36983800  0.99523400  0.79987700  1
  O  O29  1  0.63602700  0.26667600  0.45415700  1
  O  O30  1  0.34319000  0.99547700  0.29209700  1
  O  O31  1  0.11269300  0.91323200  0.84533800  1
  O  O32  1  0.36397300  0.26667600  0.54584300  1
  O  O33  1  0.12356300  0.08386700  0.45085100  1
