# generated using pymatgen
data_Na3(WO3)4
_symmetry_space_group_name_H-M   'P 1'
_cell_length_a   11.17942400
_cell_length_b   7.85678200
_cell_length_c   11.15127096
_cell_angle_alpha   90.00000000
_cell_angle_beta   90.12122209
_cell_angle_gamma   90.00000000
_symmetry_Int_Tables_number   1
_chemical_formula_structural   Na3(WO3)4
_chemical_formula_sum   'Na12 W16 O48'
_cell_volume   979.46185591
_cell_formula_units_Z   4
loop_
 _symmetry_equiv_pos_site_id
 _symmetry_equiv_pos_as_xyz
  1  'x, y, z'
loop_
 _atom_site_type_symbol
 _atom_site_label
 _atom_site_symmetry_multiplicity
 _atom_site_fract_x
 _atom_site_fract_y
 _atom_site_fract_z
 _atom_site_occupancy
  Na  Na0  1  0.00060400  0.00000000  0.99807700  1
  Na  Na1  1  0.75057700  0.00000000  0.74820300  1
  Na  Na2  1  0.49941600  0.00000000  0.99824500  1
  Na  Na3  1  0.75060000  0.00000000  0.25209400  1
  Na  Na4  1  0.49950000  0.00000000  0.50192600  1
  Na  Na5  1  0.24936700  0.00000000  0.25168700  1
  Na  Na6  1  0.50060400  0.50000000  0.99807700  1
  Na  Na7  1  0.25057700  0.50000000  0.74820300  1
  Na  Na8  1  0.99941600  0.50000000  0.99824500  1
  Na  Na9  1  0.25060000  0.50000000  0.25209400  1
  Na  Na10  1  0.99950000  0.50000000  0.50192600  1
  Na  Na11  1  0.74936700  0.50000000  0.25168700  1
  W  W12  1  0.25005400  0.75110400  0.99805700  1
  W  W13  1  0.49997400  0.25121300  0.74803900  1
  W  W14  1  0.49997400  0.74878700  0.74803900  1
  W  W15  1  0.24993500  0.75133000  0.50218300  1
  W  W16  1  0.25005400  0.24889600  0.99805700  1
  W  W17  1  0.24993500  0.24867000  0.50218300  1
  W  W18  1  0.50016900  0.74900100  0.25205000  1
  W  W19  1  0.50016900  0.25099900  0.25205000  1
  W  W20  1  0.75005400  0.25110400  0.99805700  1
  W  W21  1  0.99997400  0.75121300  0.74803900  1
  W  W22  1  0.99997400  0.24878700  0.74803900  1
  W  W23  1  0.74993500  0.25133000  0.50218300  1
  W  W24  1  0.75005400  0.74889600  0.99805700  1
  W  W25  1  0.74993500  0.74867000  0.50218300  1
  W  W26  1  0.00016900  0.24900100  0.25205000  1
  W  W27  1  0.00016900  0.75099900  0.25205000  1
  O  O28  1  0.61608000  0.76797700  0.88342100  1
  O  O29  1  0.61608000  0.23202300  0.88342100  1
  O  O30  1  0.63286750  0.23041650  0.62685600  1
  O  O31  1  0.63286750  0.76958350  0.62685600  1
  O  O32  1  0.98889800  0.00000000  0.25012100  1
  O  O33  1  0.49326900  0.00000000  0.75097000  1
  O  O34  1  0.25060800  0.00000000  0.98897800  1
  O  O35  1  0.74755100  0.00000000  0.48743100  1
  O  O36  1  0.36738050  0.26804950  0.87321000  1
  O  O37  1  0.36738050  0.73195050  0.87321000  1
  O  O38  1  0.62083750  0.26206550  0.37995000  1
  O  O39  1  0.37925250  0.26275350  0.61749700  1
  O  O40  1  0.62083750  0.73793450  0.37995000  1
  O  O41  1  0.37925250  0.73724650  0.61749700  1
  O  O42  1  0.63535350  0.26530750  0.12958500  1
  O  O43  1  0.63535350  0.73469250  0.12958500  1
  O  O44  1  0.51294400  0.00000000  0.24817600  1
  O  O45  1  0.25200000  0.00000000  0.51007800  1
  O  O46  1  0.00487400  0.00000000  0.74979000  1
  O  O47  1  0.74975200  0.00000000  0.01453700  1
  O  O48  1  0.36434550  0.23331750  0.37011200  1
  O  O49  1  0.36434550  0.76668250  0.37011200  1
  O  O50  1  0.38376950  0.76715450  0.11888600  1
  O  O51  1  0.38376950  0.23284550  0.11888600  1
  O  O52  1  0.11608000  0.26797700  0.88342100  1
  O  O53  1  0.11608000  0.73202300  0.88342100  1
  O  O54  1  0.13286750  0.73041650  0.62685600  1
  O  O55  1  0.13286750  0.26958350  0.62685600  1
  O  O56  1  0.48889800  0.50000000  0.25012100  1
  O  O57  1  0.99326900  0.50000000  0.75097000  1
  O  O58  1  0.75060800  0.50000000  0.98897800  1
  O  O59  1  0.24755100  0.50000000  0.48743100  1
  O  O60  1  0.86738050  0.76804950  0.87321000  1
  O  O61  1  0.86738050  0.23195050  0.87321000  1
  O  O62  1  0.12083750  0.76206550  0.37995000  1
  O  O63  1  0.87925250  0.76275350  0.61749700  1
  O  O64  1  0.12083750  0.23793450  0.37995000  1
  O  O65  1  0.87925250  0.23724650  0.61749700  1
  O  O66  1  0.13535350  0.76530750  0.12958500  1
  O  O67  1  0.13535350  0.23469250  0.12958500  1
  O  O68  1  0.01294400  0.50000000  0.24817600  1
  O  O69  1  0.75200000  0.50000000  0.51007800  1
  O  O70  1  0.50487400  0.50000000  0.74979000  1
  O  O71  1  0.24975200  0.50000000  0.01453700  1
  O  O72  1  0.86434550  0.73331750  0.37011200  1
  O  O73  1  0.86434550  0.26668250  0.37011200  1
  O  O74  1  0.88376950  0.26715450  0.11888600  1
  O  O75  1  0.88376950  0.73284550  0.11888600  1
