# generated using pymatgen
data_LiCo3CuO8
_symmetry_space_group_name_H-M   'P 1'
_cell_length_a   9.84570572
_cell_length_b   5.71130573
_cell_length_c   5.95232436
_cell_angle_alpha   90.00000000
_cell_angle_beta   124.31479916
_cell_angle_gamma   90.00000000
_symmetry_Int_Tables_number   1
_chemical_formula_structural   LiCo3CuO8
_chemical_formula_sum   'Li2 Co6 Cu2 O16'
_cell_volume   276.45473495
_cell_formula_units_Z   2
loop_
 _symmetry_equiv_pos_site_id
 _symmetry_equiv_pos_as_xyz
  1  'x, y, z'
loop_
 _atom_site_type_symbol
 _atom_site_label
 _atom_site_symmetry_multiplicity
 _atom_site_fract_x
 _atom_site_fract_y
 _atom_site_fract_z
 _atom_site_occupancy
  Li  Li0  1  0.00000000  0.00000000  0.50000000  1
  Li  Li1  1  0.50000000  0.50000000  0.50000000  1
  Co  Co2  1  0.25000000  0.75000000  0.00000000  1
  Co  Co3  1  0.00000000  0.50000000  0.00000000  1
  Co  Co4  1  0.75000000  0.75000000  0.00000000  1
  Co  Co5  1  0.75000000  0.25000000  0.00000000  1
  Co  Co6  1  0.50000000  0.00000000  0.00000000  1
  Co  Co7  1  0.25000000  0.25000000  0.00000000  1
  Cu  Cu8  1  0.00000000  0.00000000  0.00000000  1
  Cu  Cu9  1  0.50000000  0.50000000  0.00000000  1
  O  O10  1  0.52099400  0.24523500  0.80271200  1
  O  O11  1  0.76614250  0.00000000  0.80849500  1
  O  O12  1  0.52099400  0.75476500  0.80271200  1
  O  O13  1  0.26223100  0.00000000  0.80240900  1
  O  O14  1  0.23776900  0.50000000  0.19759100  1
  O  O15  1  0.97900600  0.74523500  0.19728800  1
  O  O16  1  0.73385750  0.50000000  0.19150500  1
  O  O17  1  0.97900600  0.25476500  0.19728800  1
  O  O18  1  0.02099400  0.74523500  0.80271200  1
  O  O19  1  0.26614250  0.50000000  0.80849500  1
  O  O20  1  0.02099400  0.25476500  0.80271200  1
  O  O21  1  0.76223100  0.50000000  0.80240900  1
  O  O22  1  0.73776900  0.00000000  0.19759100  1
  O  O23  1  0.47900600  0.24523500  0.19728800  1
  O  O24  1  0.23385750  0.00000000  0.19150500  1
  O  O25  1  0.47900600  0.75476500  0.19728800  1
