# generated using pymatgen
data_Mn2Co3Te3O16
_symmetry_space_group_name_H-M   'P 1'
_cell_length_a   10.30929377
_cell_length_b   6.02288533
_cell_length_c   9.30052089
_cell_angle_alpha   90.00000000
_cell_angle_beta   90.23344451
_cell_angle_gamma   90.00000000
_symmetry_Int_Tables_number   1
_chemical_formula_structural   Mn2Co3Te3O16
_chemical_formula_sum   'Mn4 Co6 Te6 O32'
_cell_volume   577.48030562
_cell_formula_units_Z   2
loop_
 _symmetry_equiv_pos_site_id
 _symmetry_equiv_pos_as_xyz
  1  'x, y, z'
loop_
 _atom_site_type_symbol
 _atom_site_label
 _atom_site_symmetry_multiplicity
 _atom_site_fract_x
 _atom_site_fract_y
 _atom_site_fract_z
 _atom_site_occupancy
  Mn  Mn0  1  0.67563000  0.00000000  0.51108900  1
  Mn  Mn1  1  0.34829650  0.00000000  0.97483600  1
  Mn  Mn2  1  0.17563000  0.50000000  0.51108900  1
  Mn  Mn3  1  0.84829650  0.50000000  0.97483600  1
  Co  Co4  1  0.83509850  0.00000000  0.20848800  1
  Co  Co5  1  0.40807800  0.75103200  0.71316200  1
  Co  Co6  1  0.40807800  0.24896800  0.71316200  1
  Co  Co7  1  0.33509850  0.50000000  0.20848800  1
  Co  Co8  1  0.90807800  0.25103200  0.71316200  1
  Co  Co9  1  0.90807800  0.74896800  0.71316200  1
  Te  Te10  1  0.58697200  0.75226800  0.21371700  1
  Te  Te11  1  0.58697200  0.24773200  0.21371700  1
  Te  Te12  1  0.15916300  0.00000000  0.71346700  1
  Te  Te13  1  0.08697200  0.25226800  0.21371700  1
  Te  Te14  1  0.08697200  0.74773200  0.21371700  1
  Te  Te15  1  0.65916300  0.50000000  0.71346700  1
  O  O16  1  0.57551900  0.74021900  0.60720100  1
  O  O17  1  0.51927550  0.00000000  0.34065300  1
  O  O18  1  0.65617750  0.00000000  0.09116400  1
  O  O19  1  0.01110950  0.00000000  0.32496100  1
  O  O20  1  0.99141250  0.00000000  0.81718400  1
  O  O21  1  0.57551900  0.25978100  0.60720100  1
  O  O22  1  0.73791200  0.77044400  0.32900300  1
  O  O23  1  0.73791200  0.22955600  0.32900300  1
  O  O24  1  0.16809200  0.00000000  0.09689000  1
  O  O25  1  0.84257000  0.00000000  0.60429000  1
  O  O26  1  0.25555150  0.77400450  0.83096900  1
  O  O27  1  0.25555150  0.22599550  0.83096900  1
  O  O28  1  0.32820700  0.00000000  0.60727200  1
  O  O29  1  0.43019050  0.74897850  0.10433700  1
  O  O30  1  0.47280150  0.00000000  0.82602200  1
  O  O31  1  0.43019050  0.25102150  0.10433700  1
  O  O32  1  0.07551900  0.24021900  0.60720100  1
  O  O33  1  0.01927550  0.50000000  0.34065300  1
  O  O34  1  0.15617750  0.50000000  0.09116400  1
  O  O35  1  0.51110950  0.50000000  0.32496100  1
  O  O36  1  0.49141250  0.50000000  0.81718400  1
  O  O37  1  0.07551900  0.75978100  0.60720100  1
  O  O38  1  0.23791200  0.27044400  0.32900300  1
  O  O39  1  0.23791200  0.72955600  0.32900300  1
  O  O40  1  0.66809200  0.50000000  0.09689000  1
  O  O41  1  0.34257000  0.50000000  0.60429000  1
  O  O42  1  0.75555150  0.27400450  0.83096900  1
  O  O43  1  0.75555150  0.72599550  0.83096900  1
  O  O44  1  0.82820700  0.50000000  0.60727200  1
  O  O45  1  0.93019050  0.24897850  0.10433700  1
  O  O46  1  0.97280150  0.50000000  0.82602200  1
  O  O47  1  0.93019050  0.75102150  0.10433700  1
