# generated using pymatgen
data_Li2BiO2
_symmetry_space_group_name_H-M   'P 1'
_cell_length_a   3.39622000
_cell_length_b   3.58350200
_cell_length_c   10.95219800
_cell_angle_alpha   90.00000000
_cell_angle_beta   90.00000000
_cell_angle_gamma   90.00000000
_symmetry_Int_Tables_number   1
_chemical_formula_structural   Li2BiO2
_chemical_formula_sum   'Li4 Bi2 O4'
_cell_volume   133.29220518
_cell_formula_units_Z   2
loop_
 _symmetry_equiv_pos_site_id
 _symmetry_equiv_pos_as_xyz
  1  'x, y, z'
loop_
 _atom_site_type_symbol
 _atom_site_label
 _atom_site_symmetry_multiplicity
 _atom_site_fract_x
 _atom_site_fract_y
 _atom_site_fract_z
 _atom_site_occupancy
  Li  Li0  1  0.50000000  0.50000000  0.77645400  1
  Li  Li1  1  0.00000000  0.00000000  0.72354600  1
  Li  Li2  1  0.00000000  0.00000000  0.27645400  1
  Li  Li3  1  0.50000000  0.50000000  0.22354600  1
  Bi  Bi4  1  0.00000000  0.00000000  0.00000000  1
  Bi  Bi5  1  0.50000000  0.50000000  0.50000000  1
  O  O6  1  0.50000000  0.00000000  0.84093200  1
  O  O7  1  0.00000000  0.50000000  0.65906800  1
  O  O8  1  0.00000000  0.50000000  0.34093200  1
  O  O9  1  0.50000000  0.00000000  0.15906800  1
