# generated using pymatgen
data_La3Ti4O12
_symmetry_space_group_name_H-M   'P 1'
_cell_length_a   7.80437000
_cell_length_b   7.89879800
_cell_length_c   7.83632700
_cell_angle_alpha   90.00000000
_cell_angle_beta   90.00000000
_cell_angle_gamma   90.00000000
_symmetry_Int_Tables_number   1
_chemical_formula_structural   La3Ti4O12
_chemical_formula_sum   'La6 Ti8 O24'
_cell_volume   483.07149183
_cell_formula_units_Z   2
loop_
 _symmetry_equiv_pos_site_id
 _symmetry_equiv_pos_as_xyz
  1  'x, y, z'
loop_
 _atom_site_type_symbol
 _atom_site_label
 _atom_site_symmetry_multiplicity
 _atom_site_fract_x
 _atom_site_fract_y
 _atom_site_fract_z
 _atom_site_occupancy
  La  La0  1  0.50000000  0.75736500  0.00000000  1
  La  La1  1  0.50000000  0.75634600  0.50000000  1
  La  La2  1  0.50000000  0.25026700  0.00000000  1
  La  La3  1  0.00000000  0.25736500  0.00000000  1
  La  La4  1  0.00000000  0.25634600  0.50000000  1
  La  La5  1  0.00000000  0.75026700  0.00000000  1
  Ti  Ti6  1  0.24970250  0.00145150  0.25714800  1
  Ti  Ti7  1  0.24970250  0.00145150  0.74285200  1
  Ti  Ti8  1  0.75029750  0.00145150  0.25714800  1
  Ti  Ti9  1  0.75029750  0.00145150  0.74285200  1
  Ti  Ti10  1  0.74970250  0.50145150  0.25714800  1
  Ti  Ti11  1  0.74970250  0.50145150  0.74285200  1
  Ti  Ti12  1  0.25029750  0.50145150  0.25714800  1
  Ti  Ti13  1  0.25029750  0.50145150  0.74285200  1
  O  O14  1  0.50000000  0.49939300  0.19920400  1
  O  O15  1  0.50000000  0.49939300  0.80079600  1
  O  O16  1  0.25734800  0.74909900  0.23599700  1
  O  O17  1  0.25734800  0.74909900  0.76400300  1
  O  O18  1  0.21399000  0.00871900  0.50000000  1
  O  O19  1  0.29467600  0.00432000  0.00000000  1
  O  O20  1  0.74265200  0.74909900  0.23599700  1
  O  O21  1  0.74265200  0.74909900  0.76400300  1
  O  O22  1  0.50000000  0.98207900  0.27937200  1
  O  O23  1  0.50000000  0.98207900  0.72062800  1
  O  O24  1  0.70532400  0.00432000  0.00000000  1
  O  O25  1  0.78601000  0.00871900  0.50000000  1
  O  O26  1  0.00000000  0.99939300  0.19920400  1
  O  O27  1  0.00000000  0.99939300  0.80079600  1
  O  O28  1  0.75734800  0.24909900  0.23599700  1
  O  O29  1  0.75734800  0.24909900  0.76400300  1
  O  O30  1  0.71399000  0.50871900  0.50000000  1
  O  O31  1  0.79467600  0.50432000  0.00000000  1
  O  O32  1  0.24265200  0.24909900  0.23599700  1
  O  O33  1  0.24265200  0.24909900  0.76400300  1
  O  O34  1  0.00000000  0.48207900  0.27937200  1
  O  O35  1  0.00000000  0.48207900  0.72062800  1
  O  O36  1  0.20532400  0.50432000  0.00000000  1
  O  O37  1  0.28601000  0.50871900  0.50000000  1
