# generated using pymatgen
data_Li4Mn3Sn3(TeO8)2
_symmetry_space_group_name_H-M   'P 1'
_cell_length_a   10.87850934
_cell_length_b   6.27948509
_cell_length_c   10.33588779
_cell_angle_alpha   90.00000000
_cell_angle_beta   90.57575088
_cell_angle_gamma   90.00000000
_symmetry_Int_Tables_number   1
_chemical_formula_structural   Li4Mn3Sn3(TeO8)2
_chemical_formula_sum   'Li8 Mn6 Sn6 Te4 O32'
_cell_volume   706.02370218
_cell_formula_units_Z   2
loop_
 _symmetry_equiv_pos_site_id
 _symmetry_equiv_pos_as_xyz
  1  'x, y, z'
loop_
 _atom_site_type_symbol
 _atom_site_label
 _atom_site_symmetry_multiplicity
 _atom_site_fract_x
 _atom_site_fract_y
 _atom_site_fract_z
 _atom_site_occupancy
  Li  Li0  1  0.67452875  0.00000000  0.89831200  1
  Li  Li1  1  0.99613100  0.00000000  0.98791650  1
  Li  Li2  1  0.99504675  0.00000000  0.49541200  1
  Li  Li3  1  0.83377150  0.50000000  0.40793750  1
  Li  Li4  1  0.17452875  0.50000000  0.89831200  1
  Li  Li5  1  0.49613100  0.50000000  0.98791650  1
  Li  Li6  1  0.49504675  0.50000000  0.49541200  1
  Li  Li7  1  0.33377150  0.00000000  0.40793750  1
  Mn  Mn8  1  0.83120775  0.00000000  0.21064600  1
  Mn  Mn9  1  0.91749300  0.24990450  0.71255650  1
  Mn  Mn10  1  0.91749300  0.75009550  0.71255650  1
  Mn  Mn11  1  0.33120775  0.50000000  0.21064600  1
  Mn  Mn12  1  0.41749300  0.74990450  0.71255650  1
  Mn  Mn13  1  0.41749300  0.25009550  0.71255650  1
  Sn  Sn14  1  0.66970275  0.50000000  0.71594100  1
  Sn  Sn15  1  0.58170175  0.75192225  0.21590900  1
  Sn  Sn16  1  0.58170175  0.24807775  0.21590900  1
  Sn  Sn17  1  0.16970275  0.00000000  0.71594100  1
  Sn  Sn18  1  0.08170175  0.25192225  0.21590900  1
  Sn  Sn19  1  0.08170175  0.74807775  0.21590900  1
  Te  Te20  1  0.67687500  0.00000000  0.48732150  1
  Te  Te21  1  0.85738750  0.50000000  0.98401150  1
  Te  Te22  1  0.17687500  0.50000000  0.48732150  1
  Te  Te23  1  0.35738750  0.00000000  0.98401150  1
  O  O24  1  0.50294900  0.00000000  0.32229450  1
  O  O25  1  0.66261200  0.00000000  0.10894350  1
  O  O26  1  0.99812475  0.00000000  0.31538500  1
  O  O27  1  0.99016825  0.00000000  0.80642600  1
  O  O28  1  0.64859200  0.50000000  0.10946450  1
  O  O29  1  0.83432000  0.00000000  0.57687350  1
  O  O30  1  0.84436250  0.50000000  0.61582750  1
  O  O31  1  0.98977575  0.50000000  0.85979200  1
  O  O32  1  0.57012150  0.72718500  0.61042950  1
  O  O33  1  0.57012150  0.27281500  0.61042950  1
  O  O34  1  0.73205850  0.77630350  0.35207650  1
  O  O35  1  0.73205850  0.22369650  0.35207650  1
  O  O36  1  0.76768700  0.26798700  0.82346950  1
  O  O37  1  0.76768700  0.73201300  0.82346950  1
  O  O38  1  0.92712575  0.24542625  0.08848300  1
  O  O39  1  0.92712575  0.75457375  0.08848300  1
  O  O40  1  0.00294900  0.50000000  0.32229450  1
  O  O41  1  0.16261200  0.50000000  0.10894350  1
  O  O42  1  0.49812475  0.50000000  0.31538500  1
  O  O43  1  0.49016825  0.50000000  0.80642600  1
  O  O44  1  0.14859200  0.00000000  0.10946450  1
  O  O45  1  0.33432000  0.50000000  0.57687350  1
  O  O46  1  0.34436250  0.00000000  0.61582750  1
  O  O47  1  0.48977575  0.00000000  0.85979200  1
  O  O48  1  0.07012150  0.22718500  0.61042950  1
  O  O49  1  0.07012150  0.77281500  0.61042950  1
  O  O50  1  0.23205850  0.27630350  0.35207650  1
  O  O51  1  0.23205850  0.72369650  0.35207650  1
  O  O52  1  0.26768700  0.76798700  0.82346950  1
  O  O53  1  0.26768700  0.23201300  0.82346950  1
  O  O54  1  0.42712575  0.74542625  0.08848300  1
  O  O55  1  0.42712575  0.25457375  0.08848300  1
