# generated using pymatgen
data_Na2SnPCO7
_symmetry_space_group_name_H-M   'P 1'
_cell_length_a   5.57687300
_cell_length_b   6.91496500
_cell_length_c   9.14400747
_cell_angle_alpha   90.00000000
_cell_angle_beta   93.40268704
_cell_angle_gamma   90.00000000
_symmetry_Int_Tables_number   1
_chemical_formula_structural   Na2SnPCO7
_chemical_formula_sum   'Na4 Sn2 P2 C2 O14'
_cell_volume   352.00675357
_cell_formula_units_Z   2
loop_
 _symmetry_equiv_pos_site_id
 _symmetry_equiv_pos_as_xyz
  1  'x, y, z'
loop_
 _atom_site_type_symbol
 _atom_site_label
 _atom_site_symmetry_multiplicity
 _atom_site_fract_x
 _atom_site_fract_y
 _atom_site_fract_z
 _atom_site_occupancy
  Na  Na0  1  0.77632300  0.74180200  0.91656800  1
  Na  Na1  1  0.26002300  0.96566700  0.72680600  1
  Na  Na2  1  0.73997700  0.46566700  0.27319400  1
  Na  Na3  1  0.22367700  0.24180200  0.08343200  1
  Sn  Sn4  1  0.78366300  0.26135100  0.65901600  1
  Sn  Sn5  1  0.21633700  0.76135100  0.34098400  1
  P  P6  1  0.72504600  0.75284700  0.58149800  1
  P  P7  1  0.27495400  0.25284700  0.41850200  1
  C  C8  1  0.68824100  0.24809000  0.94873100  1
  C  C9  1  0.31175900  0.74809000  0.05126900  1
  O  O10  1  0.91107400  0.26098400  0.90726500  1
  O  O11  1  0.36177900  0.77054600  0.91873500  1
  O  O12  1  0.52035000  0.21487300  0.84432600  1
  O  O13  1  0.77979300  0.57633100  0.68570800  1
  O  O14  1  0.82399300  0.92771600  0.67624900  1
  O  O15  1  0.15576000  0.22971500  0.56602100  1
  O  O16  1  0.44850100  0.77808900  0.55094400  1
  O  O17  1  0.55149900  0.27808900  0.44905600  1
  O  O18  1  0.84424000  0.72971500  0.43397900  1
  O  O19  1  0.17600700  0.42771600  0.32375100  1
  O  O20  1  0.22020700  0.07633100  0.31429200  1
  O  O21  1  0.47965000  0.71487300  0.15567400  1
  O  O22  1  0.63822100  0.27054600  0.08126500  1
  O  O23  1  0.08892600  0.76098400  0.09273500  1
