# generated using pymatgen
data_Li2Mn3SnO8
_symmetry_space_group_name_H-M   'P 1'
_cell_length_a   5.98996227
_cell_length_b   5.98996227
_cell_length_c   15.34512736
_cell_angle_alpha   90.00000000
_cell_angle_beta   90.00000000
_cell_angle_gamma   120.00000000
_symmetry_Int_Tables_number   1
_chemical_formula_structural   Li2Mn3SnO8
_chemical_formula_sum   'Li6 Mn9 Sn3 O24'
_cell_volume   476.81433482
_cell_formula_units_Z   3
loop_
 _symmetry_equiv_pos_site_id
 _symmetry_equiv_pos_as_xyz
  1  'x, y, z'
loop_
 _atom_site_type_symbol
 _atom_site_label
 _atom_site_symmetry_multiplicity
 _atom_site_fract_x
 _atom_site_fract_y
 _atom_site_fract_z
 _atom_site_occupancy
  Li  Li0  1  0.00000000  0.00000000  0.12175700  1
  Li  Li1  1  0.66666667  0.33333333  0.21157633  1
  Li  Li2  1  0.66666667  0.33333333  0.45509033  1
  Li  Li3  1  0.33333333  0.66666667  0.54490967  1
  Li  Li4  1  0.33333333  0.66666667  0.78842367  1
  Li  Li5  1  0.00000000  0.00000000  0.87824300  1
  Mn  Mn6  1  0.00000000  0.50000000  0.00000000  1
  Mn  Mn7  1  0.50000000  0.00000000  0.00000000  1
  Mn  Mn8  1  0.50000000  0.50000000  0.00000000  1
  Mn  Mn9  1  0.66666667  0.83333333  0.33333333  1
  Mn  Mn10  1  0.16666667  0.33333333  0.33333333  1
  Mn  Mn11  1  0.16666667  0.83333333  0.33333333  1
  Mn  Mn12  1  0.33333333  0.16666667  0.66666667  1
  Mn  Mn13  1  0.83333333  0.66666667  0.66666667  1
  Mn  Mn14  1  0.83333333  0.16666667  0.66666667  1
  Sn  Sn15  1  0.33333333  0.66666667  0.16666667  1
  Sn  Sn16  1  1.00000000  1.00000000  0.50000000  1
  Sn  Sn17  1  0.66666667  0.33333333  0.83333333  1
  O  O18  1  0.00000000  0.00000000  0.27221100  1
  O  O19  1  0.17884967  0.82115033  0.07912433  1
  O  O20  1  0.17884967  0.35769933  0.07912433  1
  O  O21  1  0.64230067  0.82115033  0.07912433  1
  O  O22  1  0.02436600  0.51218300  0.25420900  1
  O  O23  1  0.48781700  0.97563400  0.25420900  1
  O  O24  1  0.48781700  0.51218300  0.25420900  1
  O  O25  1  0.66666667  0.33333333  0.06112233  1
  O  O26  1  0.66666667  0.33333333  0.60554433  1
  O  O27  1  0.84551633  0.15448367  0.41245767  1
  O  O28  1  0.84551633  0.69103267  0.41245767  1
  O  O29  1  0.30896733  0.15448367  0.41245767  1
  O  O30  1  0.69103267  0.84551633  0.58754233  1
  O  O31  1  0.15448367  0.30896733  0.58754233  1
  O  O32  1  0.15448367  0.84551633  0.58754233  1
  O  O33  1  0.33333333  0.66666667  0.39445567  1
  O  O34  1  0.33333333  0.66666667  0.93887767  1
  O  O35  1  0.51218300  0.48781700  0.74579100  1
  O  O36  1  0.51218300  0.02436600  0.74579100  1
  O  O37  1  0.97563400  0.48781700  0.74579100  1
  O  O38  1  0.35769933  0.17884967  0.92087567  1
  O  O39  1  0.82115033  0.64230067  0.92087567  1
  O  O40  1  0.82115033  0.17884967  0.92087567  1
  O  O41  1  0.00000000  0.00000000  0.72778900  1
