# generated using pymatgen
data_Na2MnO2
_symmetry_space_group_name_H-M   'P 1'
_cell_length_a   5.59940602
_cell_length_b   5.83082206
_cell_length_c   8.91894707
_cell_angle_alpha   90.00000000
_cell_angle_beta   90.00000000
_cell_angle_gamma   90.00000000
_symmetry_Int_Tables_number   1
_chemical_formula_structural   Na2MnO2
_chemical_formula_sum   'Na8 Mn4 O8'
_cell_volume   291.19595280
_cell_formula_units_Z   4
loop_
 _symmetry_equiv_pos_site_id
 _symmetry_equiv_pos_as_xyz
  1  'x, y, z'
loop_
 _atom_site_type_symbol
 _atom_site_label
 _atom_site_symmetry_multiplicity
 _atom_site_fract_x
 _atom_site_fract_y
 _atom_site_fract_z
 _atom_site_occupancy
  Na  Na0  1  0.50000000  0.89566250  0.34688350  1
  Na  Na1  1  0.00000000  0.10433750  0.34688350  1
  Na  Na2  1  0.50000000  0.39566250  0.15311650  1
  Na  Na3  1  0.00000000  0.60433750  0.15311650  1
  Na  Na4  1  0.00000000  0.39566250  0.84688350  1
  Na  Na5  1  0.50000000  0.60433750  0.84688350  1
  Na  Na6  1  0.00000000  0.89566250  0.65311650  1
  Na  Na7  1  0.50000000  0.10433750  0.65311650  1
  Mn  Mn8  1  0.75000000  0.00000000  0.00000000  1
  Mn  Mn9  1  0.75000000  0.50000000  0.50000000  1
  Mn  Mn10  1  0.25000000  0.50000000  0.50000000  1
  Mn  Mn11  1  0.25000000  0.00000000  0.00000000  1
  O  O12  1  0.00000000  0.71783100  0.39960700  1
  O  O13  1  0.00000000  0.21783100  0.10039300  1
  O  O14  1  0.50000000  0.28216900  0.39960700  1
  O  O15  1  0.50000000  0.78216900  0.10039300  1
  O  O16  1  0.50000000  0.21783100  0.89960700  1
  O  O17  1  0.50000000  0.71783100  0.60039300  1
  O  O18  1  0.00000000  0.78216900  0.89960700  1
  O  O19  1  0.00000000  0.28216900  0.60039300  1
