# generated using pymatgen
data_LiFe2(PO4)2
_symmetry_space_group_name_H-M   'P 1'
_cell_length_a   6.91393200
_cell_length_b   7.70091400
_cell_length_c   6.95067208
_cell_angle_alpha   90.00000000
_cell_angle_beta   91.60827814
_cell_angle_gamma   90.00000000
_symmetry_Int_Tables_number   1
_chemical_formula_structural   LiFe2(PO4)2
_chemical_formula_sum   'Li2 Fe4 P4 O16'
_cell_volume   369.93298908
_cell_formula_units_Z   2
loop_
 _symmetry_equiv_pos_site_id
 _symmetry_equiv_pos_as_xyz
  1  'x, y, z'
loop_
 _atom_site_type_symbol
 _atom_site_label
 _atom_site_symmetry_multiplicity
 _atom_site_fract_x
 _atom_site_fract_y
 _atom_site_fract_z
 _atom_site_occupancy
  Li  Li0  1  0.50000000  0.99895400  0.00000000  1
  Li  Li1  1  0.00000000  0.49895400  0.00000000  1
  Fe  Fe2  1  0.50000000  0.50703000  0.00000000  1
  Fe  Fe3  1  0.50000000  0.98366700  0.50000000  1
  Fe  Fe4  1  0.00000000  0.00703000  0.00000000  1
  Fe  Fe5  1  0.00000000  0.48366700  0.50000000  1
  P  P6  1  0.25711100  0.25133700  0.24728000  1
  P  P7  1  0.74288900  0.25133700  0.75272000  1
  P  P8  1  0.75711100  0.75133700  0.24728000  1
  P  P9  1  0.24288900  0.75133700  0.75272000  1
  O  O10  1  0.57270650  0.86601850  0.24474700  1
  O  O11  1  0.71692950  0.15095550  0.56548700  1
  O  O12  1  0.23886650  0.12241850  0.06914300  1
  O  O13  1  0.43973400  0.36444500  0.20866100  1
  O  O14  1  0.56026600  0.36444500  0.79133900  1
  O  O15  1  0.76113350  0.12241850  0.93085700  1
  O  O16  1  0.28307050  0.15095550  0.43451300  1
  O  O17  1  0.42729350  0.86601850  0.75525300  1
  O  O18  1  0.07270650  0.36601850  0.24474700  1
  O  O19  1  0.21692950  0.65095550  0.56548700  1
  O  O20  1  0.73886650  0.62241850  0.06914300  1
  O  O21  1  0.93973400  0.86444500  0.20866100  1
  O  O22  1  0.06026600  0.86444500  0.79133900  1
  O  O23  1  0.26113350  0.62241850  0.93085700  1
  O  O24  1  0.78307050  0.65095550  0.43451300  1
  O  O25  1  0.92729350  0.36601850  0.75525300  1
