# generated using pymatgen
data_Li4TiMn3(PO4)4
_symmetry_space_group_name_H-M   'P 1'
_cell_length_a   4.77873000
_cell_length_b   6.15828800
_cell_length_c   10.59456943
_cell_angle_alpha   90.00000000
_cell_angle_beta   90.12554758
_cell_angle_gamma   90.00000000
_symmetry_Int_Tables_number   1
_chemical_formula_structural   Li4TiMn3(PO4)4
_chemical_formula_sum   'Li4 Ti1 Mn3 P4 O16'
_cell_volume   311.78467000
_cell_formula_units_Z   1
loop_
 _symmetry_equiv_pos_site_id
 _symmetry_equiv_pos_as_xyz
  1  'x, y, z'
loop_
 _atom_site_type_symbol
 _atom_site_label
 _atom_site_symmetry_multiplicity
 _atom_site_fract_x
 _atom_site_fract_y
 _atom_site_fract_z
 _atom_site_occupancy
  Li  Li0  1  0.00040900  0.75029000  0.99993900  1
  Li  Li1  1  0.00040900  0.24971000  0.99993900  1
  Li  Li2  1  0.50092600  0.24936100  0.49981000  1
  Li  Li3  1  0.50092600  0.75063900  0.49981000  1
  Ti  Ti4  1  0.02607400  0.00000000  0.27968000  1
  Mn  Mn5  1  0.97224800  0.50000000  0.71904200  1
  Mn  Mn6  1  0.52705700  0.50000000  0.21887600  1
  Mn  Mn7  1  0.47264000  0.00000000  0.78125900  1
  P  P8  1  0.90968700  0.00000000  0.59234200  1
  P  P9  1  0.59004300  0.00000000  0.09203800  1
  P  P10  1  0.40991800  0.50000000  0.90829600  1
  P  P11  1  0.08843200  0.50000000  0.40838500  1
  O  O12  1  0.78785100  0.00000000  0.45592900  1
  O  O13  1  0.77639500  0.79893000  0.66156400  1
  O  O14  1  0.77639500  0.20107000  0.66156400  1
  O  O15  1  0.76694200  0.50000000  0.40418800  1
  O  O16  1  0.73139800  0.50000000  0.90419000  1
  O  O17  1  0.72747400  0.79990000  0.16159900  1
  O  O18  1  0.72747400  0.20010000  0.16159900  1
  O  O19  1  0.71193000  0.00000000  0.95605400  1
  O  O20  1  0.28872000  0.50000000  0.04465300  1
  O  O21  1  0.27602400  0.29888800  0.83896300  1
  O  O22  1  0.27602400  0.70111200  0.83896300  1
  O  O23  1  0.26852300  0.00000000  0.09421900  1
  O  O24  1  0.23144100  0.00000000  0.59608000  1
  O  O25  1  0.22075700  0.29865700  0.33834900  1
  O  O26  1  0.22075700  0.70134300  0.33834900  1
  O  O27  1  0.21312400  0.50000000  0.54432200  1
