# generated using pymatgen
data_Li2FeP2O7
_symmetry_space_group_name_H-M   'P 1'
_cell_length_a   8.94367698
_cell_length_b   5.06371580
_cell_length_c   13.22749281
_cell_angle_alpha   90.00000000
_cell_angle_beta   101.98149841
_cell_angle_gamma   90.00000000
_symmetry_Int_Tables_number   1
_chemical_formula_structural   Li2FeP2O7
_chemical_formula_sum   'Li8 Fe4 P8 O28'
_cell_volume   585.99935987
_cell_formula_units_Z   4
loop_
 _symmetry_equiv_pos_site_id
 _symmetry_equiv_pos_as_xyz
  1  'x, y, z'
loop_
 _atom_site_type_symbol
 _atom_site_label
 _atom_site_symmetry_multiplicity
 _atom_site_fract_x
 _atom_site_fract_y
 _atom_site_fract_z
 _atom_site_occupancy
  Li  Li0  1  0.61000025  0.18409175  0.09038525  1
  Li  Li1  1  0.38999975  0.18409175  0.40961475  1
  Li  Li2  1  0.61000025  0.81590825  0.59038525  1
  Li  Li3  1  0.38999975  0.81590825  0.90961475  1
  Li  Li4  1  0.11000025  0.68409175  0.09038525  1
  Li  Li5  1  0.88999975  0.68409175  0.40961475  1
  Li  Li6  1  0.11000025  0.31590825  0.59038525  1
  Li  Li7  1  0.88999975  0.31590825  0.90961475  1
  Fe  Fe8  1  0.25000000  0.25000000  0.00000000  1
  Fe  Fe9  1  0.75000000  0.25000000  0.50000000  1
  Fe  Fe10  1  0.75000000  0.75000000  0.00000000  1
  Fe  Fe11  1  0.25000000  0.75000000  0.50000000  1
  P  P12  1  0.54315125  0.29879575  0.86858725  1
  P  P13  1  0.45684875  0.29879575  0.63141275  1
  P  P14  1  0.54315125  0.70120425  0.36858725  1
  P  P15  1  0.45684875  0.70120425  0.13141275  1
  P  P16  1  0.04315125  0.79879575  0.86858725  1
  P  P17  1  0.95684875  0.79879575  0.63141275  1
  P  P18  1  0.04315125  0.20120425  0.36858725  1
  P  P19  1  0.95684875  0.20120425  0.13141275  1
  O  O20  1  0.50000000  0.20246350  0.75000000  1
  O  O21  1  0.50000000  0.79753650  0.25000000  1
  O  O22  1  0.31555075  0.47782425  0.61833125  1
  O  O23  1  0.68444925  0.47782425  0.88166875  1
  O  O24  1  0.31555075  0.52217575  0.11833125  1
  O  O25  1  0.68444925  0.52217575  0.38166875  1
  O  O26  1  0.42105350  0.03622050  0.57293225  1
  O  O27  1  0.57894650  0.03622050  0.92706775  1
  O  O28  1  0.42105350  0.96377950  0.07293225  1
  O  O29  1  0.57894650  0.96377950  0.42706775  1
  O  O30  1  0.59594950  0.56401950  0.10344775  1
  O  O31  1  0.40405050  0.56401950  0.39655225  1
  O  O32  1  0.59594950  0.43598050  0.60344775  1
  O  O33  1  0.40405050  0.43598050  0.89655225  1
  O  O34  1  0.00000000  0.70246350  0.75000000  1
  O  O35  1  0.00000000  0.29753650  0.25000000  1
  O  O36  1  0.81555075  0.97782425  0.61833125  1
  O  O37  1  0.18444925  0.97782425  0.88166875  1
  O  O38  1  0.81555075  0.02217575  0.11833125  1
  O  O39  1  0.18444925  0.02217575  0.38166875  1
  O  O40  1  0.92105350  0.53622050  0.57293225  1
  O  O41  1  0.07894650  0.53622050  0.92706775  1
  O  O42  1  0.92105350  0.46377950  0.07293225  1
  O  O43  1  0.07894650  0.46377950  0.42706775  1
  O  O44  1  0.09594950  0.06401950  0.10344775  1
  O  O45  1  0.90405050  0.06401950  0.39655225  1
  O  O46  1  0.09594950  0.93598050  0.60344775  1
  O  O47  1  0.90405050  0.93598050  0.89655225  1
