# generated using pymatgen
data_Na2FePCO7
_symmetry_space_group_name_H-M   'P 1'
_cell_length_a   5.30360877
_cell_length_b   6.55448067
_cell_length_c   8.91046485
_cell_angle_alpha   86.95228296
_cell_angle_beta   88.59231209
_cell_angle_gamma   89.53416581
_symmetry_Int_Tables_number   1
_chemical_formula_structural   Na2FePCO7
_chemical_formula_sum   'Na4 Fe2 P2 C2 O14'
_cell_volume   309.21047092
_cell_formula_units_Z   2
loop_
 _symmetry_equiv_pos_site_id
 _symmetry_equiv_pos_as_xyz
  1  'x, y, z'
loop_
 _atom_site_type_symbol
 _atom_site_label
 _atom_site_symmetry_multiplicity
 _atom_site_fract_x
 _atom_site_fract_y
 _atom_site_fract_z
 _atom_site_occupancy
  Na  Na0  1  0.23011500  0.28426000  0.91641800  1
  Na  Na1  1  0.76988500  0.71574000  0.08358200  1
  Na  Na2  1  0.74865850  0.00923450  0.73590150  1
  Na  Na3  1  0.25134150  0.99076550  0.26409850  1
  Fe  Fe4  1  0.22079500  0.73406600  0.65537650  1
  Fe  Fe5  1  0.77920500  0.26593400  0.34462350  1
  P  P6  1  0.27768750  0.24146850  0.57316850  1
  P  P7  1  0.72231250  0.75853150  0.42683150  1
  C  C8  1  0.28656300  0.75783600  0.93340400  1
  C  C9  1  0.71343700  0.24216400  0.06659600  1
  O  O10  1  0.67682100  0.21256900  0.92978700  1
  O  O11  1  0.32317900  0.78743100  0.07021300  1
  O  O12  1  0.06034700  0.73552100  0.87882950  1
  O  O13  1  0.93965300  0.26447900  0.12117050  1
  O  O14  1  0.47233350  0.74270450  0.83400600  1
  O  O15  1  0.52766650  0.25729550  0.16599400  1
  O  O16  1  0.20907050  0.05595050  0.68269700  1
  O  O17  1  0.79092950  0.94404950  0.31730300  1
  O  O18  1  0.23120900  0.43196900  0.66564500  1
  O  O19  1  0.76879100  0.56803100  0.33435500  1
  O  O20  1  0.88183200  0.75724700  0.56942750  1
  O  O21  1  0.11816800  0.24275300  0.43057250  1
  O  O22  1  0.56178550  0.22458750  0.52598500  1
  O  O23  1  0.43821450  0.77541250  0.47401500  1
