# generated using pymatgen
data_Li2Fe2(PO4)3
_symmetry_space_group_name_H-M   'P 1'
_cell_length_a   15.01715800
_cell_length_b   8.84798000
_cell_length_c   8.77100350
_cell_angle_alpha   90.00000000
_cell_angle_beta   125.66626246
_cell_angle_gamma   90.00000000
_symmetry_Int_Tables_number   1
_chemical_formula_structural   Li2Fe2(PO4)3
_chemical_formula_sum   'Li8 Fe8 P12 O48'
_cell_volume   946.81583190
_cell_formula_units_Z   4
loop_
 _symmetry_equiv_pos_site_id
 _symmetry_equiv_pos_as_xyz
  1  'x, y, z'
loop_
 _atom_site_type_symbol
 _atom_site_label
 _atom_site_symmetry_multiplicity
 _atom_site_fract_x
 _atom_site_fract_y
 _atom_site_fract_z
 _atom_site_occupancy
  Li  Li0  1  0.25518550  0.57070750  0.55697800  1
  Li  Li1  1  0.24481450  0.07070750  0.94302200  1
  Li  Li2  1  0.25518550  0.42929250  0.05697800  1
  Li  Li3  1  0.24481450  0.92929250  0.44302200  1
  Li  Li4  1  0.75518550  0.07070750  0.55697800  1
  Li  Li5  1  0.74481450  0.57070750  0.94302200  1
  Li  Li6  1  0.75518550  0.92929250  0.05697800  1
  Li  Li7  1  0.74481450  0.42929250  0.44302200  1
  Fe  Fe8  1  0.61083900  0.75362300  0.57456700  1
  Fe  Fe9  1  0.38916100  0.75362300  0.92543300  1
  Fe  Fe10  1  0.11083900  0.74637700  0.07456700  1
  Fe  Fe11  1  0.88916100  0.74637700  0.42543300  1
  Fe  Fe12  1  0.11083900  0.25362300  0.57456700  1
  Fe  Fe13  1  0.88916100  0.25362300  0.92543300  1
  Fe  Fe14  1  0.61083900  0.24637700  0.07456700  1
  Fe  Fe15  1  0.38916100  0.24637700  0.42543300  1
  P  P16  1  0.50000000  0.53397600  0.75000000  1
  P  P17  1  0.00000000  0.96602400  0.25000000  1
  P  P18  1  0.64461700  0.10180300  0.75451000  1
  P  P19  1  0.35538300  0.10180300  0.74549000  1
  P  P20  1  0.14461700  0.39819700  0.25451000  1
  P  P21  1  0.85538300  0.39819700  0.24549000  1
  P  P22  1  0.00000000  0.03397600  0.75000000  1
  P  P23  1  0.50000000  0.46602400  0.25000000  1
  P  P24  1  0.14461700  0.60180300  0.75451000  1
  P  P25  1  0.85538300  0.60180300  0.74549000  1
  P  P26  1  0.64461700  0.89819700  0.25451000  1
  P  P27  1  0.35538300  0.89819700  0.24549000  1
  O  O28  1  0.43010500  0.56435900  0.07333400  1
  O  O29  1  0.03494250  0.34146450  0.08800500  1
  O  O30  1  0.58327800  0.63483600  0.74623900  1
  O  O31  1  0.83231950  0.36415450  0.05232900  1
  O  O32  1  0.43010500  0.43564100  0.57333400  1
  O  O33  1  0.41672200  0.63483600  0.75376100  1
  O  O34  1  0.65876250  0.92645450  0.76061800  1
  O  O35  1  0.23445700  0.66928300  0.73778500  1
  O  O36  1  0.34123750  0.92645450  0.73938200  1
  O  O37  1  0.16768050  0.36415450  0.44767100  1
  O  O38  1  0.23445700  0.33071700  0.23778500  1
  O  O39  1  0.46505750  0.84146450  0.41199500  1
  O  O40  1  0.03494250  0.65853550  0.58800500  1
  O  O41  1  0.26554300  0.16928300  0.76221500  1
  O  O42  1  0.33231950  0.13584550  0.55232900  1
  O  O43  1  0.15876250  0.57354550  0.26061800  1
  O  O44  1  0.26554300  0.83071700  0.26221500  1
  O  O45  1  0.84123750  0.57354550  0.23938200  1
  O  O46  1  0.08327800  0.86516400  0.24623900  1
  O  O47  1  0.06989500  0.06435900  0.42666600  1
  O  O48  1  0.66768050  0.13584550  0.94767100  1
  O  O49  1  0.91672200  0.86516400  0.25376100  1
  O  O50  1  0.46505750  0.15853550  0.91199500  1
  O  O51  1  0.06989500  0.93564100  0.92666600  1
  O  O52  1  0.93010500  0.06435900  0.07333400  1
  O  O53  1  0.53494250  0.84146450  0.08800500  1
  O  O54  1  0.08327800  0.13483600  0.74623900  1
  O  O55  1  0.33231950  0.86415450  0.05232900  1
  O  O56  1  0.93010500  0.93564100  0.57333400  1
  O  O57  1  0.91672200  0.13483600  0.75376100  1
  O  O58  1  0.15876250  0.42645450  0.76061800  1
  O  O59  1  0.73445700  0.16928300  0.73778500  1
  O  O60  1  0.84123750  0.42645450  0.73938200  1
  O  O61  1  0.66768050  0.86415450  0.44767100  1
  O  O62  1  0.73445700  0.83071700  0.23778500  1
  O  O63  1  0.96505750  0.34146450  0.41199500  1
  O  O64  1  0.53494250  0.15853550  0.58800500  1
  O  O65  1  0.76554300  0.66928300  0.76221500  1
  O  O66  1  0.83231950  0.63584550  0.55232900  1
  O  O67  1  0.65876250  0.07354550  0.26061800  1
  O  O68  1  0.76554300  0.33071700  0.26221500  1
  O  O69  1  0.34123750  0.07354550  0.23938200  1
  O  O70  1  0.58327800  0.36516400  0.24623900  1
  O  O71  1  0.56989500  0.56435900  0.42666600  1
  O  O72  1  0.16768050  0.63584550  0.94767100  1
  O  O73  1  0.41672200  0.36516400  0.25376100  1
  O  O74  1  0.96505750  0.65853550  0.91199500  1
  O  O75  1  0.56989500  0.43564100  0.92666600  1
