# generated using pymatgen
data_LiCoNiO4
_symmetry_space_group_name_H-M   'P 1'
_cell_length_a   5.63437400
_cell_length_b   5.73984600
_cell_length_c   8.33948200
_cell_angle_alpha   90.00000000
_cell_angle_beta   90.00000000
_cell_angle_gamma   90.00000000
_symmetry_Int_Tables_number   1
_chemical_formula_structural   LiCoNiO4
_chemical_formula_sum   'Li4 Co4 Ni4 O16'
_cell_volume   269.70250947
_cell_formula_units_Z   4
loop_
 _symmetry_equiv_pos_site_id
 _symmetry_equiv_pos_as_xyz
  1  'x, y, z'
loop_
 _atom_site_type_symbol
 _atom_site_label
 _atom_site_symmetry_multiplicity
 _atom_site_fract_x
 _atom_site_fract_y
 _atom_site_fract_z
 _atom_site_occupancy
  Li  Li0  1  0.50000000  0.00000000  0.00000000  1
  Li  Li1  1  0.50000000  0.50000000  0.00000000  1
  Li  Li2  1  0.00000000  0.50000000  0.50000000  1
  Li  Li3  1  0.00000000  0.00000000  0.50000000  1
  Co  Co4  1  0.25000000  0.75000000  0.75000000  1
  Co  Co5  1  0.75000000  0.75000000  0.75000000  1
  Co  Co6  1  0.75000000  0.25000000  0.25000000  1
  Co  Co7  1  0.25000000  0.25000000  0.25000000  1
  Ni  Ni8  1  0.00000000  0.50000000  0.00000000  1
  Ni  Ni9  1  0.00000000  0.00000000  0.00000000  1
  Ni  Ni10  1  0.50000000  0.00000000  0.50000000  1
  Ni  Ni11  1  0.50000000  0.50000000  0.50000000  1
  O  O12  1  0.22807100  0.75000000  0.97687900  1
  O  O13  1  0.50000000  0.96636500  0.75145400  1
  O  O14  1  0.72807100  0.75000000  0.52312100  1
  O  O15  1  0.50000000  0.53363500  0.75145400  1
  O  O16  1  0.00000000  0.96636500  0.74854600  1
  O  O17  1  0.77192900  0.75000000  0.97687900  1
  O  O18  1  0.00000000  0.53363500  0.74854600  1
  O  O19  1  0.27192900  0.75000000  0.52312100  1
  O  O20  1  0.72807100  0.25000000  0.47687900  1
  O  O21  1  0.00000000  0.46636500  0.25145400  1
  O  O22  1  0.22807100  0.25000000  0.02312100  1
  O  O23  1  0.00000000  0.03363500  0.25145400  1
  O  O24  1  0.50000000  0.46636500  0.24854600  1
  O  O25  1  0.27192900  0.25000000  0.47687900  1
  O  O26  1  0.50000000  0.03363500  0.24854600  1
  O  O27  1  0.77192900  0.25000000  0.02312100  1
