# generated using pymatgen
data_Li2FeSiO4
_symmetry_space_group_name_H-M   'P 1'
_cell_length_a   5.13230200
_cell_length_b   11.03734200
_cell_length_c   6.23237968
_cell_angle_alpha   90.00000000
_cell_angle_beta   91.30707992
_cell_angle_gamma   90.00000000
_symmetry_Int_Tables_number   1
_chemical_formula_structural   Li2FeSiO4
_chemical_formula_sum   'Li8 Fe4 Si4 O16'
_cell_volume   352.95357659
_cell_formula_units_Z   4
loop_
 _symmetry_equiv_pos_site_id
 _symmetry_equiv_pos_as_xyz
  1  'x, y, z'
loop_
 _atom_site_type_symbol
 _atom_site_label
 _atom_site_symmetry_multiplicity
 _atom_site_fract_x
 _atom_site_fract_y
 _atom_site_fract_z
 _atom_site_occupancy
  Li  Li0  1  0.05788800  0.34331000  0.25172100  1
  Li  Li1  1  0.95184300  0.07315700  0.98902800  1
  Li  Li2  1  0.04815700  0.57315700  0.01097200  1
  Li  Li3  1  0.94211200  0.84331000  0.74827900  1
  Li  Li4  1  0.45369500  0.43010700  0.49846700  1
  Li  Li5  1  0.44168500  0.66059300  0.25679200  1
  Li  Li6  1  0.55831500  0.16059300  0.74320800  1
  Li  Li7  1  0.54630500  0.93010700  0.50153300  1
  Fe  Fe8  1  0.44894700  0.66915400  0.75642900  1
  Fe  Fe9  1  0.55105300  0.16915400  0.24357100  1
  Fe  Fe10  1  0.94865600  0.83326200  0.24691200  1
  Fe  Fe11  1  0.05134400  0.33326200  0.75308800  1
  Si  Si12  1  0.94392900  0.59085500  0.50669200  1
  Si  Si13  1  0.05607100  0.09085500  0.49330800  1
  Si  Si14  1  0.44270600  0.91261200  0.99709000  1
  Si  Si15  1  0.55729400  0.41261200  0.00291000  1
  O  O16  1  0.88003300  0.41582800  0.00475900  1
  O  O17  1  0.95954900  0.16717700  0.27657600  1
  O  O18  1  0.95459900  0.15944900  0.71320000  1
  O  O19  1  0.06176900  0.45215500  0.50636900  1
  O  O20  1  0.93823100  0.95215500  0.49363100  1
  O  O21  1  0.04540100  0.65944900  0.28680000  1
  O  O22  1  0.04045100  0.66717700  0.72342400  1
  O  O23  1  0.11996700  0.91582800  0.99524100  1
  O  O24  1  0.37863900  0.08774500  0.49692000  1
  O  O25  1  0.46091000  0.33587600  0.78558300  1
  O  O26  1  0.43986300  0.55129100  0.00276100  1
  O  O27  1  0.54429400  0.84422100  0.77712500  1
  O  O28  1  0.45570600  0.34422100  0.22287500  1
  O  O29  1  0.56013700  0.05129100  0.99723900  1
  O  O30  1  0.53909000  0.83587600  0.21441700  1
  O  O31  1  0.62136100  0.58774500  0.50308000  1
