# generated using pymatgen
data_Li5FeO3F2
_symmetry_space_group_name_H-M   'P 1'
_cell_length_a   9.95218800
_cell_length_b   3.88201800
_cell_length_c   6.04861763
_cell_angle_alpha   90.00000000
_cell_angle_beta   110.83182860
_cell_angle_gamma   90.00000000
_symmetry_Int_Tables_number   1
_chemical_formula_structural   Li5FeO3F2
_chemical_formula_sum   'Li10 Fe2 O6 F4'
_cell_volume   218.40931554
_cell_formula_units_Z   2
loop_
 _symmetry_equiv_pos_site_id
 _symmetry_equiv_pos_as_xyz
  1  'x, y, z'
loop_
 _atom_site_type_symbol
 _atom_site_label
 _atom_site_symmetry_multiplicity
 _atom_site_fract_x
 _atom_site_fract_y
 _atom_site_fract_z
 _atom_site_occupancy
  Li  Li0  1  0.18390800  0.50000000  0.86430400  1
  Li  Li1  1  0.18433300  0.50000000  0.34946800  1
  Li  Li2  1  0.28927900  0.00000000  0.68891500  1
  Li  Li3  1  0.31521200  0.00000000  0.13173000  1
  Li  Li4  1  0.48032000  0.50000000  0.52832400  1
  Li  Li5  1  0.68390800  0.00000000  0.86430400  1
  Li  Li6  1  0.68433300  0.00000000  0.34946800  1
  Li  Li7  1  0.78927900  0.50000000  0.68891500  1
  Li  Li8  1  0.81521200  0.50000000  0.13173000  1
  Li  Li9  1  0.98032000  0.00000000  0.52832400  1
  Fe  Fe10  1  0.49616100  0.50000000  0.97657200  1
  Fe  Fe11  1  0.99616100  0.00000000  0.97657200  1
  O  O12  1  0.14171600  0.00000000  0.83444200  1
  O  O13  1  0.49389900  0.00000000  0.05727200  1
  O  O14  1  0.33299500  0.50000000  0.68547400  1
  O  O15  1  0.64171600  0.50000000  0.83444200  1
  O  O16  1  0.99389900  0.50000000  0.05727200  1
  O  O17  1  0.83299500  0.00000000  0.68547400  1
  F  F18  1  0.16306200  0.00000000  0.34646700  1
  F  F19  1  0.33664300  0.50000000  0.20643600  1
  F  F20  1  0.66306200  0.50000000  0.34646700  1
  F  F21  1  0.83664300  0.00000000  0.20643600  1
