# generated using pymatgen
data_Cr(PO3)2
_symmetry_space_group_name_H-M   'P 1'
_cell_length_a   13.03608000
_cell_length_b   8.37385600
_cell_length_c   10.04893299
_cell_angle_alpha   90.00000000
_cell_angle_beta   119.17178020
_cell_angle_gamma   90.00000000
_symmetry_Int_Tables_number   1
_chemical_formula_structural   Cr(PO3)2
_chemical_formula_sum   'Cr8 P16 O48'
_cell_volume   957.82773813
_cell_formula_units_Z   8
loop_
 _symmetry_equiv_pos_site_id
 _symmetry_equiv_pos_as_xyz
  1  'x, y, z'
loop_
 _atom_site_type_symbol
 _atom_site_label
 _atom_site_symmetry_multiplicity
 _atom_site_fract_x
 _atom_site_fract_y
 _atom_site_fract_z
 _atom_site_occupancy
  Cr  Cr0  1  0.00000000  0.94763000  0.75000000  1
  Cr  Cr1  1  0.25000000  0.25000000  0.50000000  1
  Cr  Cr2  1  0.25000000  0.75000000  0.00000000  1
  Cr  Cr3  1  0.50000000  0.55237000  0.25000000  1
  Cr  Cr4  1  0.50000000  0.44763000  0.75000000  1
  Cr  Cr5  1  0.75000000  0.75000000  0.50000000  1
  Cr  Cr6  1  0.75000000  0.25000000  0.00000000  1
  Cr  Cr7  1  0.00000000  0.05237000  0.25000000  1
  P  P8  1  0.18540500  0.49762000  0.19033000  1
  P  P9  1  0.98899600  0.73744500  0.02162100  1
  P  P10  1  0.68540500  0.00238000  0.69033000  1
  P  P11  1  0.01100400  0.73744500  0.47837900  1
  P  P12  1  0.48899600  0.76255500  0.52162100  1
  P  P13  1  0.81459500  0.49762000  0.30967000  1
  P  P14  1  0.51100400  0.76255500  0.97837900  1
  P  P15  1  0.31459500  0.00238000  0.80967000  1
  P  P16  1  0.68540500  0.99762000  0.19033000  1
  P  P17  1  0.48899600  0.23744500  0.02162100  1
  P  P18  1  0.18540500  0.50238000  0.69033000  1
  P  P19  1  0.51100400  0.23744500  0.47837900  1
  P  P20  1  0.98899600  0.26255500  0.52162100  1
  P  P21  1  0.31459500  0.99762000  0.30967000  1
  P  P22  1  0.01100400  0.26255500  0.97837900  1
  P  P23  1  0.81459500  0.50238000  0.80967000  1
  O  O24  1  0.22455850  0.42805550  0.34360500  1
  O  O25  1  0.53482750  0.26531550  0.91102100  1
  O  O26  1  0.07631800  0.61563300  0.15306300  1
  O  O27  1  0.27735450  0.41571450  0.66776400  1
  O  O28  1  0.96530250  0.87723850  0.09328300  1
  O  O29  1  0.53482750  0.73468450  0.41102100  1
  O  O30  1  0.36888350  0.13609750  0.94212900  1
  O  O31  1  0.03469750  0.87723850  0.40671700  1
  O  O32  1  0.13111650  0.63609750  0.55787100  1
  O  O33  1  0.72455850  0.07194450  0.84360500  1
  O  O34  1  0.92368200  0.61563300  0.34693700  1
  O  O35  1  0.22264550  0.91571450  0.83223600  1
  O  O36  1  0.27735450  0.58428550  0.16776400  1
  O  O37  1  0.57631800  0.88436700  0.65306300  1
  O  O38  1  0.77544150  0.42805550  0.15639500  1
  O  O39  1  0.36888350  0.86390250  0.44212900  1
  O  O40  1  0.46530250  0.62276150  0.59328300  1
  O  O41  1  0.13111650  0.36390250  0.05787100  1
  O  O42  1  0.96517250  0.76531550  0.58897900  1
  O  O43  1  0.53469750  0.62276150  0.90671700  1
  O  O44  1  0.22264550  0.08428550  0.33223600  1
  O  O45  1  0.42368200  0.88436700  0.84693700  1
  O  O46  1  0.96517250  0.23468450  0.08897900  1
  O  O47  1  0.27544150  0.07194450  0.65639500  1
  O  O48  1  0.72455850  0.92805550  0.34360500  1
  O  O49  1  0.03482750  0.76531550  0.91102100  1
  O  O50  1  0.57631800  0.11563300  0.15306300  1
  O  O51  1  0.77735450  0.91571450  0.66776400  1
  O  O52  1  0.46530250  0.37723850  0.09328300  1
  O  O53  1  0.03482750  0.23468450  0.41102100  1
  O  O54  1  0.86888350  0.63609750  0.94212900  1
  O  O55  1  0.53469750  0.37723850  0.40671700  1
  O  O56  1  0.63111650  0.13609750  0.55787100  1
  O  O57  1  0.22455850  0.57194450  0.84360500  1
  O  O58  1  0.42368200  0.11563300  0.34693700  1
  O  O59  1  0.72264550  0.41571450  0.83223600  1
  O  O60  1  0.77735450  0.08428550  0.16776400  1
  O  O61  1  0.07631800  0.38436700  0.65306300  1
  O  O62  1  0.27544150  0.92805550  0.15639500  1
  O  O63  1  0.86888350  0.36390250  0.44212900  1
  O  O64  1  0.96530250  0.12276150  0.59328300  1
  O  O65  1  0.63111650  0.86390250  0.05787100  1
  O  O66  1  0.46517250  0.26531550  0.58897900  1
  O  O67  1  0.03469750  0.12276150  0.90671700  1
  O  O68  1  0.72264550  0.58428550  0.33223600  1
  O  O69  1  0.92368200  0.38436700  0.84693700  1
  O  O70  1  0.46517250  0.73468450  0.08897900  1
  O  O71  1  0.77544150  0.57194450  0.65639500  1
