# generated using pymatgen
data_Li4Ti3MnO8
_symmetry_space_group_name_H-M   'P 1'
_cell_length_a   5.98236373
_cell_length_b   5.98236373
_cell_length_c   14.82520226
_cell_angle_alpha   90.00000000
_cell_angle_beta   90.00000000
_cell_angle_gamma   120.00000000
_symmetry_Int_Tables_number   1
_chemical_formula_structural   Li4Ti3MnO8
_chemical_formula_sum   'Li12 Ti9 Mn3 O24'
_cell_volume   459.49087242
_cell_formula_units_Z   3
loop_
 _symmetry_equiv_pos_site_id
 _symmetry_equiv_pos_as_xyz
  1  'x, y, z'
loop_
 _atom_site_type_symbol
 _atom_site_label
 _atom_site_symmetry_multiplicity
 _atom_site_fract_x
 _atom_site_fract_y
 _atom_site_fract_z
 _atom_site_occupancy
  Li  Li0  1  0.33333333  0.66666667  0.16666667  1
  Li  Li1  1  0.33333333  0.16666667  0.16666667  1
  Li  Li2  1  0.83333333  0.16666667  0.16666667  1
  Li  Li3  1  0.83333333  0.66666667  0.16666667  1
  Li  Li4  1  1.00000000  1.00000000  0.50000000  1
  Li  Li5  1  0.00000000  0.50000000  0.50000000  1
  Li  Li6  1  0.50000000  0.50000000  0.50000000  1
  Li  Li7  1  0.50000000  0.00000000  0.50000000  1
  Li  Li8  1  0.66666667  0.33333333  0.83333333  1
  Li  Li9  1  0.66666667  0.83333333  0.83333333  1
  Li  Li10  1  0.16666667  0.83333333  0.83333333  1
  Li  Li11  1  0.16666667  0.33333333  0.83333333  1
  Ti  Ti12  1  0.00000000  0.50000000  0.00000000  1
  Ti  Ti13  1  0.16666667  0.83333333  0.33333333  1
  Ti  Ti14  1  0.16666667  0.33333333  0.33333333  1
  Ti  Ti15  1  0.66666667  0.83333333  0.33333333  1
  Ti  Ti16  1  0.83333333  0.16666667  0.66666667  1
  Ti  Ti17  1  0.83333333  0.66666667  0.66666667  1
  Ti  Ti18  1  0.33333333  0.16666667  0.66666667  1
  Ti  Ti19  1  0.50000000  0.50000000  0.00000000  1
  Ti  Ti20  1  0.50000000  1.00000000  0.00000000  1
  Mn  Mn21  1  0.00000000  0.00000000  0.00000000  1
  Mn  Mn22  1  0.66666667  0.33333333  0.33333333  1
  Mn  Mn23  1  0.33333333  0.66666667  0.66666667  1
  O  O24  1  0.66666667  0.33333333  0.07830033  1
  O  O25  1  0.64858467  0.82429233  0.07766033  1
  O  O26  1  0.17570767  0.82429233  0.07766033  1
  O  O27  1  0.00000000  0.00000000  0.25503300  1
  O  O28  1  0.17570767  0.35141533  0.07766033  1
  O  O29  1  0.01808200  0.50904100  0.25567300  1
  O  O30  1  0.49095900  0.50904100  0.25567300  1
  O  O31  1  0.49095900  0.98191800  0.25567300  1
  O  O32  1  0.33333333  0.66666667  0.41163367  1
  O  O33  1  0.31525133  0.15762567  0.41099367  1
  O  O34  1  0.84237433  0.15762567  0.41099367  1
  O  O35  1  0.66666667  0.33333333  0.58836633  1
  O  O36  1  0.84237433  0.68474867  0.41099367  1
  O  O37  1  0.68474867  0.84237433  0.58900633  1
  O  O38  1  0.15762567  0.84237433  0.58900633  1
  O  O39  1  0.15762567  0.31525133  0.58900633  1
  O  O40  1  0.00000000  0.00000000  0.74496700  1
  O  O41  1  0.98191800  0.49095900  0.74432700  1
  O  O42  1  0.50904100  0.49095900  0.74432700  1
  O  O43  1  0.33333333  0.66666667  0.92169967  1
  O  O44  1  0.50904100  0.01808200  0.74432700  1
  O  O45  1  0.35141533  0.17570767  0.92233967  1
  O  O46  1  0.82429233  0.17570767  0.92233967  1
  O  O47  1  0.82429233  0.64858467  0.92233967  1
