# generated using pymatgen
data_Li4Fe3Ni3(SnO8)2
_symmetry_space_group_name_H-M   'P 1'
_cell_length_a   10.31644385
_cell_length_b   5.87731667
_cell_length_c   9.69145955
_cell_angle_alpha   90.00000000
_cell_angle_beta   90.72767815
_cell_angle_gamma   90.00000000
_symmetry_Int_Tables_number   1
_chemical_formula_structural   Li4Fe3Ni3(SnO8)2
_chemical_formula_sum   'Li8 Fe6 Ni6 Sn4 O32'
_cell_volume   587.57494792
_cell_formula_units_Z   2
loop_
 _symmetry_equiv_pos_site_id
 _symmetry_equiv_pos_as_xyz
  1  'x, y, z'
loop_
 _atom_site_type_symbol
 _atom_site_label
 _atom_site_symmetry_multiplicity
 _atom_site_fract_x
 _atom_site_fract_y
 _atom_site_fract_z
 _atom_site_occupancy
  Li  Li0  1  0.83446050  0.50000000  0.10740600  1
  Li  Li1  1  0.49957150  0.50000000  0.00730000  1
  Li  Li2  1  0.99776800  0.00000000  0.50452000  1
  Li  Li3  1  0.66283500  0.00000000  0.60425100  1
  Li  Li4  1  0.33446050  0.00000000  0.10740600  1
  Li  Li5  1  0.99957150  0.00000000  0.00730000  1
  Li  Li6  1  0.49776800  0.50000000  0.50452000  1
  Li  Li7  1  0.16283500  0.50000000  0.60425100  1
  Fe  Fe8  1  0.91372550  0.25708850  0.78585300  1
  Fe  Fe9  1  0.91372550  0.74291150  0.78585300  1
  Fe  Fe10  1  0.82873650  0.00000000  0.28520600  1
  Fe  Fe11  1  0.41372550  0.75708850  0.78585300  1
  Fe  Fe12  1  0.41372550  0.24291150  0.78585300  1
  Fe  Fe13  1  0.32873650  0.50000000  0.28520600  1
  Ni  Ni14  1  0.66806650  0.50000000  0.78563300  1
  Ni  Ni15  1  0.58375200  0.75533500  0.28604900  1
  Ni  Ni16  1  0.58375200  0.24466500  0.28604900  1
  Ni  Ni17  1  0.16806650  0.00000000  0.78563300  1
  Ni  Ni18  1  0.08375200  0.25533500  0.28604900  1
  Ni  Ni19  1  0.08375200  0.74466500  0.28604900  1
  Sn  Sn20  1  0.82802000  0.50000000  0.50810600  1
  Sn  Sn21  1  0.66672100  0.00000000  0.00967400  1
  Sn  Sn22  1  0.32802000  0.00000000  0.50810600  1
  Sn  Sn23  1  0.16672100  0.50000000  0.00967400  1
  O  O24  1  0.91344750  0.24205150  0.39929700  1
  O  O25  1  0.98071650  0.50000000  0.65855600  1
  O  O26  1  0.83327500  0.50000000  0.89337400  1
  O  O27  1  0.49826100  0.50000000  0.69272500  1
  O  O28  1  0.50188950  0.50000000  0.19586200  1
  O  O29  1  0.91344750  0.75794850  0.39929700  1
  O  O30  1  0.75525500  0.27505000  0.65945400  1
  O  O31  1  0.75525500  0.72495000  0.65945400  1
  O  O32  1  0.83741400  0.00000000  0.89974200  1
  O  O33  1  0.65255650  0.50000000  0.39788600  1
  O  O34  1  0.74329050  0.77663750  0.15996000  1
  O  O35  1  0.74329050  0.22336250  0.15996000  1
  O  O36  1  0.66167650  0.00000000  0.38836100  1
  O  O37  1  0.57735100  0.74605400  0.90187600  1
  O  O38  1  0.51924150  0.00000000  0.16640100  1
  O  O39  1  0.57735100  0.25394600  0.90187600  1
  O  O40  1  0.41344750  0.74205150  0.39929700  1
  O  O41  1  0.48071650  0.00000000  0.65855600  1
  O  O42  1  0.33327500  0.00000000  0.89337400  1
  O  O43  1  0.99826100  0.00000000  0.69272500  1
  O  O44  1  0.00188950  0.00000000  0.19586200  1
  O  O45  1  0.41344750  0.25794850  0.39929700  1
  O  O46  1  0.25525500  0.77505000  0.65945400  1
  O  O47  1  0.25525500  0.22495000  0.65945400  1
  O  O48  1  0.33741400  0.50000000  0.89974200  1
  O  O49  1  0.15255650  0.00000000  0.39788600  1
  O  O50  1  0.24329050  0.27663750  0.15996000  1
  O  O51  1  0.24329050  0.72336250  0.15996000  1
  O  O52  1  0.16167650  0.50000000  0.38836100  1
  O  O53  1  0.07735100  0.24605400  0.90187600  1
  O  O54  1  0.01924150  0.50000000  0.16640100  1
  O  O55  1  0.07735100  0.75394600  0.90187600  1
