# generated using pymatgen
data_LiCoPO4
_symmetry_space_group_name_H-M   'P 1'
_cell_length_a   5.05600600
_cell_length_b   10.07740400
_cell_length_c   13.61631100
_cell_angle_alpha   90.00000000
_cell_angle_beta   90.00000000
_cell_angle_gamma   90.00000000
_symmetry_Int_Tables_number   1
_chemical_formula_structural   LiCoPO4
_chemical_formula_sum   'Li8 Co8 P8 O32'
_cell_volume   693.77031373
_cell_formula_units_Z   8
loop_
 _symmetry_equiv_pos_site_id
 _symmetry_equiv_pos_as_xyz
  1  'x, y, z'
loop_
 _atom_site_type_symbol
 _atom_site_label
 _atom_site_symmetry_multiplicity
 _atom_site_fract_x
 _atom_site_fract_y
 _atom_site_fract_z
 _atom_site_occupancy
  Li  Li0  1  0.92785900  0.03103700  0.50102800  1
  Li  Li1  1  0.55334100  0.22032200  0.75126500  1
  Li  Li2  1  0.55334100  0.27967800  0.25126500  1
  Li  Li3  1  0.92785900  0.46896300  0.00102800  1
  Li  Li4  1  0.07214100  0.53103700  0.50102800  1
  Li  Li5  1  0.44665900  0.72032200  0.75126500  1
  Li  Li6  1  0.44665900  0.77967800  0.25126500  1
  Li  Li7  1  0.07214100  0.96896300  0.00102800  1
  Co  Co8  1  0.06050200  0.03617000  0.75166700  1
  Co  Co9  1  0.55549500  0.21687600  0.00127000  1
  Co  Co10  1  0.55549500  0.28312400  0.50127000  1
  Co  Co11  1  0.06050200  0.46383000  0.25166700  1
  Co  Co12  1  0.93949800  0.53617000  0.75166700  1
  Co  Co13  1  0.44450500  0.71687600  0.00127000  1
  Co  Co14  1  0.44450500  0.78312400  0.50127000  1
  Co  Co15  1  0.93949800  0.96383000  0.25166700  1
  P  P16  1  0.43492200  0.03061400  0.37630200  1
  P  P17  1  0.05295300  0.21535700  0.12765600  1
  P  P18  1  0.05295300  0.28464300  0.62765600  1
  P  P19  1  0.43492200  0.46938600  0.87630200  1
  P  P20  1  0.56507800  0.53061400  0.37630200  1
  P  P21  1  0.94704700  0.71535700  0.12765600  1
  P  P22  1  0.94704700  0.78464300  0.62765600  1
  P  P23  1  0.56507800  0.96938600  0.87630200  1
  O  O24  1  0.86707400  0.99876900  0.87619100  1
  O  O25  1  0.55768700  0.96823500  0.47046100  1
  O  O26  1  0.44421800  0.03316500  0.78251600  1
  O  O27  1  0.99703400  0.06385100  0.12863100  1
  O  O28  1  0.49209500  0.18183900  0.37729300  1
  O  O29  1  0.92210500  0.22531900  0.53387500  1
  O  O30  1  0.93636800  0.27937300  0.22197500  1
  O  O31  1  0.35480000  0.24518200  0.12547100  1
  O  O32  1  0.35480000  0.25481800  0.62547100  1
  O  O33  1  0.93636800  0.22062700  0.72197500  1
  O  O34  1  0.92210500  0.27468100  0.03387500  1
  O  O35  1  0.49209500  0.31816100  0.87729300  1
  O  O36  1  0.99703400  0.43614900  0.62863100  1
  O  O37  1  0.44421800  0.46683500  0.28251600  1
  O  O38  1  0.55768700  0.53176500  0.97046100  1
  O  O39  1  0.86707400  0.50123100  0.37619100  1
  O  O40  1  0.13292600  0.49876900  0.87619100  1
  O  O41  1  0.44231300  0.46823500  0.47046100  1
  O  O42  1  0.55578200  0.53316500  0.78251600  1
  O  O43  1  0.00296600  0.56385100  0.12863100  1
  O  O44  1  0.50790500  0.68183900  0.37729300  1
  O  O45  1  0.07789500  0.72531900  0.53387500  1
  O  O46  1  0.06363200  0.77937300  0.22197500  1
  O  O47  1  0.64520000  0.74518200  0.12547100  1
  O  O48  1  0.64520000  0.75481800  0.62547100  1
  O  O49  1  0.06363200  0.72062700  0.72197500  1
  O  O50  1  0.07789500  0.77468100  0.03387500  1
  O  O51  1  0.50790500  0.81816100  0.87729300  1
  O  O52  1  0.00296600  0.93614900  0.62863100  1
  O  O53  1  0.55578200  0.96683500  0.28251600  1
  O  O54  1  0.44231300  0.03176500  0.97046100  1
  O  O55  1  0.13292600  0.00123100  0.37619100  1
