# generated using pymatgen
data_Co3(OF2)2
_symmetry_space_group_name_H-M   'P 1'
_cell_length_a   4.62489282
_cell_length_b   4.63595500
_cell_length_c   10.39905550
_cell_angle_alpha   90.00000000
_cell_angle_beta   116.05715513
_cell_angle_gamma   90.00000000
_symmetry_Int_Tables_number   1
_chemical_formula_structural   Co3(OF2)2
_chemical_formula_sum   'Co6 O4 F8'
_cell_volume   200.30113031
_cell_formula_units_Z   2
loop_
 _symmetry_equiv_pos_site_id
 _symmetry_equiv_pos_as_xyz
  1  'x, y, z'
loop_
 _atom_site_type_symbol
 _atom_site_label
 _atom_site_symmetry_multiplicity
 _atom_site_fract_x
 _atom_site_fract_y
 _atom_site_fract_z
 _atom_site_occupancy
  Co  Co0  1  0.50000000  0.50000000  0.00000000  1
  Co  Co1  1  0.78526250  0.46348200  0.32607450  1
  Co  Co2  1  0.21473750  0.53651800  0.67392550  1
  Co  Co3  1  0.50000000  0.00000000  0.50000000  1
  Co  Co4  1  0.21473750  0.96348200  0.17392550  1
  Co  Co5  1  0.78526250  0.03651800  0.82607450  1
  O  O6  1  0.46849650  0.81361900  0.66710250  1
  O  O7  1  0.53150350  0.31361900  0.83289750  1
  O  O8  1  0.46849650  0.68638100  0.16710250  1
  O  O9  1  0.53150350  0.18638100  0.33289750  1
  F  F10  1  0.12023650  0.77664800  0.33140050  1
  F  F11  1  0.87976350  0.27664800  0.16859950  1
  F  F12  1  0.12023650  0.72335200  0.83140050  1
  F  F13  1  0.87976350  0.22335200  0.66859950  1
  F  F14  1  0.80679150  0.80894500  0.00018450  1
  F  F15  1  0.19320850  0.30894500  0.49981550  1
  F  F16  1  0.80679150  0.69105500  0.50018450  1
  F  F17  1  0.19320850  0.19105500  0.99981550  1
