# generated using pymatgen
data_LiCrO2
_symmetry_space_group_name_H-M   'P 1'
_cell_length_a   2.92934116
_cell_length_b   2.92934116
_cell_length_c   9.97726717
_cell_angle_alpha   90.00000000
_cell_angle_beta   90.00000000
_cell_angle_gamma   120.00000000
_symmetry_Int_Tables_number   1
_chemical_formula_structural   LiCrO2
_chemical_formula_sum   'Li2 Cr2 O4'
_cell_volume   74.14504665
_cell_formula_units_Z   2
loop_
 _symmetry_equiv_pos_site_id
 _symmetry_equiv_pos_as_xyz
  1  'x, y, z'
loop_
 _atom_site_type_symbol
 _atom_site_label
 _atom_site_symmetry_multiplicity
 _atom_site_fract_x
 _atom_site_fract_y
 _atom_site_fract_z
 _atom_site_occupancy
  Li  Li0  1  0.66666667  0.33333333  0.76012700  1
  Li  Li1  1  0.33333333  0.66666667  0.26012700  1
  Cr  Cr2  1  0.66666667  0.33333333  0.50046100  1
  Cr  Cr3  1  0.33333333  0.66666667  0.00046100  1
  O  O4  1  0.00000000  0.00000000  0.38742450  1
  O  O5  1  0.00000000  0.00000000  0.88742450  1
  O  O6  1  0.66666667  0.33333333  0.11155100  1
  O  O7  1  0.33333333  0.66666667  0.61155100  1
