# generated using pymatgen
data_Li3Fe(CO3)3
_symmetry_space_group_name_H-M   'P 1'
_cell_length_a   7.25037200
_cell_length_b   9.51410600
_cell_length_c   10.00275900
_cell_angle_alpha   90.00000000
_cell_angle_beta   90.00000000
_cell_angle_gamma   90.00000000
_symmetry_Int_Tables_number   1
_chemical_formula_structural   Li3Fe(CO3)3
_chemical_formula_sum   'Li12 Fe4 C12 O36'
_cell_volume   689.99839552
_cell_formula_units_Z   4
loop_
 _symmetry_equiv_pos_site_id
 _symmetry_equiv_pos_as_xyz
  1  'x, y, z'
loop_
 _atom_site_type_symbol
 _atom_site_label
 _atom_site_symmetry_multiplicity
 _atom_site_fract_x
 _atom_site_fract_y
 _atom_site_fract_z
 _atom_site_occupancy
  Li  Li0  1  0.08728000  0.00000000  0.00000000  1
  Li  Li1  1  0.37234100  0.97847500  0.25000000  1
  Li  Li2  1  0.47371400  0.72179100  0.25000000  1
  Li  Li3  1  0.08728000  0.00000000  0.50000000  1
  Li  Li4  1  0.47371400  0.27820900  0.75000000  1
  Li  Li5  1  0.37234100  0.02152500  0.75000000  1
  Li  Li6  1  0.58728000  0.50000000  0.00000000  1
  Li  Li7  1  0.87234100  0.47847500  0.25000000  1
  Li  Li8  1  0.97371400  0.22179100  0.25000000  1
  Li  Li9  1  0.58728000  0.50000000  0.50000000  1
  Li  Li10  1  0.97371400  0.77820900  0.75000000  1
  Li  Li11  1  0.87234100  0.52152500  0.75000000  1
  Fe  Fe12  1  0.42031750  0.26799050  0.25000000  1
  Fe  Fe13  1  0.42031750  0.73200950  0.75000000  1
  Fe  Fe14  1  0.92031750  0.76799050  0.25000000  1
  Fe  Fe15  1  0.92031750  0.23200950  0.75000000  1
  C  C16  1  0.35659050  0.20335250  0.01125800  1
  C  C17  1  0.73982800  0.00462900  0.25000000  1
  C  C18  1  0.35659050  0.20335250  0.48874200  1
  C  C19  1  0.35659050  0.79664750  0.51125800  1
  C  C20  1  0.73982800  0.99537100  0.75000000  1
  C  C21  1  0.35659050  0.79664750  0.98874200  1
  C  C22  1  0.85659050  0.70335250  0.01125800  1
  C  C23  1  0.23982800  0.50462900  0.25000000  1
  C  C24  1  0.85659050  0.70335250  0.48874200  1
  C  C25  1  0.85659050  0.29664750  0.51125800  1
  C  C26  1  0.23982800  0.49537100  0.75000000  1
  C  C27  1  0.85659050  0.29664750  0.98874200  1
  O  O28  1  0.45042900  0.31349200  0.05230000  1
  O  O29  1  0.28409950  0.12921450  0.10951300  1
  O  O30  1  0.33743950  0.82781750  0.11044100  1
  O  O31  1  0.62517800  0.10744900  0.25000000  1
  O  O32  1  0.91830550  0.01812550  0.25000000  1
  O  O33  1  0.67707800  0.87554600  0.25000000  1
  O  O34  1  0.33743950  0.82781750  0.38955900  1
  O  O35  1  0.28409950  0.12921450  0.39048700  1
  O  O36  1  0.45042900  0.31349200  0.44770000  1
  O  O37  1  0.45042900  0.68650800  0.55230000  1
  O  O38  1  0.28409950  0.87078550  0.60951300  1
  O  O39  1  0.33743950  0.17218250  0.61044100  1
  O  O40  1  0.67707800  0.12445400  0.75000000  1
  O  O41  1  0.62517800  0.89255100  0.75000000  1
  O  O42  1  0.91830550  0.98187450  0.75000000  1
  O  O43  1  0.33743950  0.17218250  0.88955900  1
  O  O44  1  0.28409950  0.87078550  0.89048700  1
  O  O45  1  0.45042900  0.68650800  0.94770000  1
  O  O46  1  0.95042900  0.81349200  0.05230000  1
  O  O47  1  0.78409950  0.62921450  0.10951300  1
  O  O48  1  0.83743950  0.32781750  0.11044100  1
  O  O49  1  0.12517800  0.60744900  0.25000000  1
  O  O50  1  0.41830550  0.51812550  0.25000000  1
  O  O51  1  0.17707800  0.37554600  0.25000000  1
  O  O52  1  0.83743950  0.32781750  0.38955900  1
  O  O53  1  0.78409950  0.62921450  0.39048700  1
  O  O54  1  0.95042900  0.81349200  0.44770000  1
  O  O55  1  0.95042900  0.18650800  0.55230000  1
  O  O56  1  0.78409950  0.37078550  0.60951300  1
  O  O57  1  0.83743950  0.67218250  0.61044100  1
  O  O58  1  0.17707800  0.62445400  0.75000000  1
  O  O59  1  0.12517800  0.39255100  0.75000000  1
  O  O60  1  0.41830550  0.48187450  0.75000000  1
  O  O61  1  0.83743950  0.67218250  0.88955900  1
  O  O62  1  0.78409950  0.37078550  0.89048700  1
  O  O63  1  0.95042900  0.18650800  0.94770000  1
