# generated using pymatgen
data_Ti3Co3(TeO8)2
_symmetry_space_group_name_H-M   'P 1'
_cell_length_a   10.46427000
_cell_length_b   6.00287000
_cell_length_c   9.29770291
_cell_angle_alpha   90.00000000
_cell_angle_beta   91.46999471
_cell_angle_gamma   90.00000000
_symmetry_Int_Tables_number   1
_chemical_formula_structural   Ti3Co3(TeO8)2
_chemical_formula_sum   'Ti6 Co6 Te4 O32'
_cell_volume   583.84906438
_cell_formula_units_Z   2
loop_
 _symmetry_equiv_pos_site_id
 _symmetry_equiv_pos_as_xyz
  1  'x, y, z'
loop_
 _atom_site_type_symbol
 _atom_site_label
 _atom_site_symmetry_multiplicity
 _atom_site_fract_x
 _atom_site_fract_y
 _atom_site_fract_z
 _atom_site_occupancy
  Ti  Ti0  1  0.58863250  0.24773550  0.20865700  1
  Ti  Ti1  1  0.58863250  0.75226450  0.20865700  1
  Ti  Ti2  1  0.66329100  0.50000000  0.70608000  1
  Ti  Ti3  1  0.08863250  0.74773550  0.20865700  1
  Ti  Ti4  1  0.08863250  0.25226450  0.20865700  1
  Ti  Ti5  1  0.16329100  0.00000000  0.70608000  1
  Co  Co6  1  0.82928300  0.00000000  0.20733400  1
  Co  Co7  1  0.90952400  0.74418900  0.71375200  1
  Co  Co8  1  0.90952400  0.25581100  0.71375200  1
  Co  Co9  1  0.32928300  0.50000000  0.20733400  1
  Co  Co10  1  0.40952400  0.24418900  0.71375200  1
  Co  Co11  1  0.40952400  0.75581100  0.71375200  1
  Te  Te12  1  0.67053200  0.00000000  0.48824700  1
  Te  Te13  1  0.83889600  0.50000000  0.98711300  1
  Te  Te14  1  0.17053200  0.50000000  0.48824700  1
  Te  Te15  1  0.33889600  0.00000000  0.98711300  1
  O  O16  1  0.59385800  0.23747000  0.60220100  1
  O  O17  1  0.52466600  0.00000000  0.34528800  1
  O  O18  1  0.65066600  0.00000000  0.10187500  1
  O  O19  1  0.50873000  0.50000000  0.29292800  1
  O  O20  1  0.99831900  0.00000000  0.79332800  1
  O  O21  1  0.59385800  0.76253000  0.60220100  1
  O  O22  1  0.73185750  0.22130850  0.34803900  1
  O  O23  1  0.73185750  0.77869150  0.34803900  1
  O  O24  1  0.68277300  0.50000000  0.10501500  1
  O  O25  1  0.83036000  0.00000000  0.59228800  1
  O  O26  1  0.75685300  0.71130300  0.84810400  1
  O  O27  1  0.75685300  0.28869700  0.84810400  1
  O  O28  1  0.82875700  0.50000000  0.60965000  1
  O  O29  1  0.91741050  0.73460950  0.09998100  1
  O  O30  1  0.97686200  0.50000000  0.84493300  1
  O  O31  1  0.91741050  0.26539050  0.09998100  1
  O  O32  1  0.09385800  0.73747000  0.60220100  1
  O  O33  1  0.02466600  0.50000000  0.34528800  1
  O  O34  1  0.15066600  0.50000000  0.10187500  1
  O  O35  1  0.00873000  0.00000000  0.29292800  1
  O  O36  1  0.49831900  0.50000000  0.79332800  1
  O  O37  1  0.09385800  0.26253000  0.60220100  1
  O  O38  1  0.23185750  0.72130850  0.34803900  1
  O  O39  1  0.23185750  0.27869150  0.34803900  1
  O  O40  1  0.18277300  0.00000000  0.10501500  1
  O  O41  1  0.33036000  0.50000000  0.59228800  1
  O  O42  1  0.25685300  0.21130300  0.84810400  1
  O  O43  1  0.25685300  0.78869700  0.84810400  1
  O  O44  1  0.32875700  0.00000000  0.60965000  1
  O  O45  1  0.41741050  0.23460950  0.09998100  1
  O  O46  1  0.47686200  0.00000000  0.84493300  1
  O  O47  1  0.41741050  0.76539050  0.09998100  1
