# generated using pymatgen
data_Li6NiOF6
_symmetry_space_group_name_H-M   'P 1'
_cell_length_a   2.97877864
_cell_length_b   3.99560556
_cell_length_c   20.72104758
_cell_angle_alpha   90.00000000
_cell_angle_beta   90.00000000
_cell_angle_gamma   90.00000000
_symmetry_Int_Tables_number   1
_chemical_formula_structural   Li6NiOF6
_chemical_formula_sum   'Li12 Ni2 O2 F12'
_cell_volume   246.62241637
_cell_formula_units_Z   2
loop_
 _symmetry_equiv_pos_site_id
 _symmetry_equiv_pos_as_xyz
  1  'x, y, z'
loop_
 _atom_site_type_symbol
 _atom_site_label
 _atom_site_symmetry_multiplicity
 _atom_site_fract_x
 _atom_site_fract_y
 _atom_site_fract_z
 _atom_site_occupancy
  Li  Li0  1  0.50000000  0.50000000  0.43298012  1
  Li  Li1  1  0.00000000  0.00000000  0.06701988  1
  Li  Li2  1  0.00000000  0.00000000  0.35112375  1
  Li  Li3  1  0.50000000  0.50000000  0.14887625  1
  Li  Li4  1  0.50000000  0.50000000  0.28680950  1
  Li  Li5  1  0.00000000  0.00000000  0.21319050  1
  Li  Li6  1  0.00000000  0.00000000  0.93298012  1
  Li  Li7  1  0.50000000  0.50000000  0.56701988  1
  Li  Li8  1  0.50000000  0.50000000  0.85112375  1
  Li  Li9  1  0.00000000  0.00000000  0.64887625  1
  Li  Li10  1  0.00000000  0.00000000  0.78680950  1
  Li  Li11  1  0.50000000  0.50000000  0.71319050  1
  Ni  Ni12  1  0.00000000  0.00000000  0.50000000  1
  Ni  Ni13  1  0.50000000  0.50000000  0.00000000  1
  O  O14  1  0.50000000  0.00000000  0.00000000  1
  O  O15  1  0.00000000  0.50000000  0.50000000  1
  F  F16  1  0.50000000  0.00000000  0.42562087  1
  F  F17  1  0.00000000  0.50000000  0.07437913  1
  F  F18  1  0.00000000  0.50000000  0.35377587  1
  F  F19  1  0.50000000  0.00000000  0.14622413  1
  F  F20  1  0.50000000  0.00000000  0.28501962  1
  F  F21  1  0.00000000  0.50000000  0.21498038  1
  F  F22  1  0.00000000  0.50000000  0.92562087  1
  F  F23  1  0.50000000  0.00000000  0.57437913  1
  F  F24  1  0.50000000  0.00000000  0.85377587  1
  F  F25  1  0.00000000  0.50000000  0.64622413  1
  F  F26  1  0.00000000  0.50000000  0.78501962  1
  F  F27  1  0.50000000  0.00000000  0.71498038  1
