# generated using pymatgen
data_Cr3(OF)2
_symmetry_space_group_name_H-M   'P 1'
_cell_length_a   5.59233777
_cell_length_b   6.48468200
_cell_length_c   6.01561545
_cell_angle_alpha   90.00000000
_cell_angle_beta   116.89843538
_cell_angle_gamma   90.00000000
_symmetry_Int_Tables_number   1
_chemical_formula_structural   Cr3(OF)2
_chemical_formula_sum   'Cr6 O4 F4'
_cell_volume   194.55142917
_cell_formula_units_Z   2
loop_
 _symmetry_equiv_pos_site_id
 _symmetry_equiv_pos_as_xyz
  1  'x, y, z'
loop_
 _atom_site_type_symbol
 _atom_site_label
 _atom_site_symmetry_multiplicity
 _atom_site_fract_x
 _atom_site_fract_y
 _atom_site_fract_z
 _atom_site_occupancy
  Cr  Cr0  1  0.75704550  0.38155400  0.96584900  1
  Cr  Cr1  1  0.25704550  0.11844600  0.96584900  1
  Cr  Cr2  1  0.00000000  0.50000000  0.50000000  1
  Cr  Cr3  1  0.50000000  0.00000000  0.50000000  1
  Cr  Cr4  1  0.74295450  0.88155400  0.03415100  1
  Cr  Cr5  1  0.24295450  0.61844600  0.03415100  1
  O  O6  1  0.98018650  0.62690000  0.18380600  1
  O  O7  1  0.51981350  0.12690000  0.81619400  1
  O  O8  1  0.48018650  0.87310000  0.18380600  1
  O  O9  1  0.01981350  0.37310000  0.81619400  1
  F  F10  1  0.63143550  0.38197900  0.25567000  1
  F  F11  1  0.13143550  0.11802100  0.25567000  1
  F  F12  1  0.86856450  0.88197900  0.74433000  1
  F  F13  1  0.36856450  0.61802100  0.74433000  1
