# generated using pymatgen
data_Na3VPCO7
_symmetry_space_group_name_H-M   'P 1'
_cell_length_a   5.38806805
_cell_length_b   6.77204804
_cell_length_c   8.92130330
_cell_angle_alpha   90.00000000
_cell_angle_beta   91.48195757
_cell_angle_gamma   90.00000000
_symmetry_Int_Tables_number   1
_chemical_formula_structural   Na3VPCO7
_chemical_formula_sum   'Na6 V2 P2 C2 O14'
_cell_volume   325.41391429
_cell_formula_units_Z   2
loop_
 _symmetry_equiv_pos_site_id
 _symmetry_equiv_pos_as_xyz
  1  'x, y, z'
loop_
 _atom_site_type_symbol
 _atom_site_label
 _atom_site_symmetry_multiplicity
 _atom_site_fract_x
 _atom_site_fract_y
 _atom_site_fract_z
 _atom_site_occupancy
  Na  Na0  1  0.49934150  0.48733900  0.00050650  1
  Na  Na1  1  0.50065850  0.98733900  0.99949350  1
  Na  Na2  1  0.05496200  0.22964700  0.16190900  1
  Na  Na3  1  0.94503800  0.72964700  0.83809100  1
  Na  Na4  1  0.00186400  0.48564100  0.49811550  1
  Na  Na5  1  0.99813600  0.98564100  0.50188450  1
  V  V6  1  0.45217300  0.73726500  0.28017000  1
  V  V7  1  0.54782700  0.23726500  0.71983000  1
  P  P8  1  0.51508200  0.23689000  0.34364650  1
  P  P9  1  0.48491800  0.73689000  0.65635350  1
  C  C10  1  0.00172150  0.73768300  0.16331550  1
  C  C11  1  0.99827850  0.23768300  0.83668450  1
  O  O12  1  0.18740850  0.73785600  0.06986350  1
  O  O13  1  0.81259150  0.23785600  0.93013650  1
  O  O14  1  0.77343850  0.73798600  0.11200000  1
  O  O15  1  0.22656150  0.23798600  0.88800000  1
  O  O16  1  0.42054250  0.05403600  0.24956250  1
  O  O17  1  0.57945750  0.55403600  0.75043750  1
  O  O18  1  0.42136650  0.42003800  0.24973700  1
  O  O19  1  0.57863350  0.92003800  0.75026300  1
  O  O20  1  0.05309250  0.73752400  0.30512850  1
  O  O21  1  0.94690750  0.23752400  0.69487150  1
  O  O22  1  0.80077850  0.23565300  0.35894950  1
  O  O23  1  0.19922150  0.73565300  0.64105050  1
  O  O24  1  0.38794400  0.23737000  0.49790350  1
  O  O25  1  0.61205600  0.73737000  0.50209650  1
