# generated using pymatgen
data_Ag2GeO4
_symmetry_space_group_name_H-M   'P 1'
_cell_length_a   6.00848600
_cell_length_b   10.44630600
_cell_length_c   12.07363600
_cell_angle_alpha   90.00000000
_cell_angle_beta   90.00000000
_cell_angle_gamma   90.00000000
_symmetry_Int_Tables_number   1
_chemical_formula_structural   Ag2GeO4
_chemical_formula_sum   'Ag16 Ge8 O32'
_cell_volume   757.81967300
_cell_formula_units_Z   8
loop_
 _symmetry_equiv_pos_site_id
 _symmetry_equiv_pos_as_xyz
  1  'x, y, z'
loop_
 _atom_site_type_symbol
 _atom_site_label
 _atom_site_symmetry_multiplicity
 _atom_site_fract_x
 _atom_site_fract_y
 _atom_site_fract_z
 _atom_site_occupancy
  Ag  Ag0  1  0.25000000  0.90578300  0.75000000  1
  Ag  Ag1  1  0.25000000  0.59421700  0.75000000  1
  Ag  Ag2  1  0.00000000  0.84421700  0.00000000  1
  Ag  Ag3  1  0.50000000  0.65578300  0.00000000  1
  Ag  Ag4  1  0.25000000  0.40578300  0.25000000  1
  Ag  Ag5  1  0.25000000  0.09421700  0.25000000  1
  Ag  Ag6  1  0.00000000  0.34421700  0.50000000  1
  Ag  Ag7  1  0.50000000  0.15578300  0.50000000  1
  Ag  Ag8  1  0.75000000  0.90578300  0.25000000  1
  Ag  Ag9  1  0.75000000  0.59421700  0.25000000  1
  Ag  Ag10  1  0.50000000  0.84421700  0.50000000  1
  Ag  Ag11  1  0.00000000  0.65578300  0.50000000  1
  Ag  Ag12  1  0.75000000  0.40578300  0.75000000  1
  Ag  Ag13  1  0.75000000  0.09421700  0.75000000  1
  Ag  Ag14  1  0.50000000  0.34421700  0.00000000  1
  Ag  Ag15  1  0.00000000  0.15578300  0.00000000  1
  Ge  Ge16  1  0.50000000  0.00000000  0.00000000  1
  Ge  Ge17  1  0.75000000  0.75000000  0.75000000  1
  Ge  Ge18  1  0.50000000  0.50000000  0.50000000  1
  Ge  Ge19  1  0.75000000  0.25000000  0.25000000  1
  Ge  Ge20  1  0.00000000  0.00000000  0.50000000  1
  Ge  Ge21  1  0.25000000  0.75000000  0.25000000  1
  Ge  Ge22  1  0.00000000  0.50000000  0.00000000  1
  Ge  Ge23  1  0.25000000  0.25000000  0.75000000  1
  O  O24  1  0.33299700  0.89125850  0.92183650  1
  O  O25  1  0.33299700  0.60874150  0.57816350  1
  O  O26  1  0.16700300  0.60874150  0.92183650  1
  O  O27  1  0.16700300  0.89125850  0.57816350  1
  O  O28  1  0.58299700  0.85874150  0.67183650  1
  O  O29  1  0.58299700  0.64125850  0.82816350  1
  O  O30  1  0.91700300  0.64125850  0.67183650  1
  O  O31  1  0.91700300  0.85874150  0.82816350  1
  O  O32  1  0.33299700  0.39125850  0.42183650  1
  O  O33  1  0.33299700  0.10874150  0.07816350  1
  O  O34  1  0.16700300  0.10874150  0.42183650  1
  O  O35  1  0.16700300  0.39125850  0.07816350  1
  O  O36  1  0.58299700  0.35874150  0.17183650  1
  O  O37  1  0.58299700  0.14125850  0.32816350  1
  O  O38  1  0.91700300  0.14125850  0.17183650  1
  O  O39  1  0.91700300  0.35874150  0.32816350  1
  O  O40  1  0.83299700  0.89125850  0.42183650  1
  O  O41  1  0.83299700  0.60874150  0.07816350  1
  O  O42  1  0.66700300  0.60874150  0.42183650  1
  O  O43  1  0.66700300  0.89125850  0.07816350  1
  O  O44  1  0.08299700  0.85874150  0.17183650  1
  O  O45  1  0.08299700  0.64125850  0.32816350  1
  O  O46  1  0.41700300  0.64125850  0.17183650  1
  O  O47  1  0.41700300  0.85874150  0.32816350  1
  O  O48  1  0.83299700  0.39125850  0.92183650  1
  O  O49  1  0.83299700  0.10874150  0.57816350  1
  O  O50  1  0.66700300  0.10874150  0.92183650  1
  O  O51  1  0.66700300  0.39125850  0.57816350  1
  O  O52  1  0.08299700  0.35874150  0.67183650  1
  O  O53  1  0.08299700  0.14125850  0.82816350  1
  O  O54  1  0.41700300  0.14125850  0.67183650  1
  O  O55  1  0.41700300  0.35874150  0.82816350  1
