# generated using pymatgen
data_Fe4O7F
_symmetry_space_group_name_H-M   'P 1'
_cell_length_a   6.41859400
_cell_length_b   6.60968000
_cell_length_c   6.02737700
_cell_angle_alpha   90.00000000
_cell_angle_beta   90.00000000
_cell_angle_gamma   90.00000000
_symmetry_Int_Tables_number   1
_chemical_formula_structural   Fe4O7F
_chemical_formula_sum   'Fe8 O14 F2'
_cell_volume   255.71057952
_cell_formula_units_Z   2
loop_
 _symmetry_equiv_pos_site_id
 _symmetry_equiv_pos_as_xyz
  1  'x, y, z'
loop_
 _atom_site_type_symbol
 _atom_site_label
 _atom_site_symmetry_multiplicity
 _atom_site_fract_x
 _atom_site_fract_y
 _atom_site_fract_z
 _atom_site_occupancy
  Fe  Fe0  1  0.50000000  0.49190100  0.25851500  1
  Fe  Fe1  1  0.50000000  0.49190100  0.74148500  1
  Fe  Fe2  1  0.50000000  0.99570300  0.50000000  1
  Fe  Fe3  1  0.50000000  0.01902800  0.00000000  1
  Fe  Fe4  1  0.00000000  0.99190100  0.25851500  1
  Fe  Fe5  1  0.00000000  0.99190100  0.74148500  1
  Fe  Fe6  1  0.00000000  0.49570300  0.50000000  1
  Fe  Fe7  1  0.00000000  0.51902800  0.00000000  1
  O  O8  1  0.50000000  0.29682100  0.50000000  1
  O  O9  1  0.50000000  0.31651400  0.00000000  1
  O  O10  1  0.30678950  0.00017850  0.24654800  1
  O  O11  1  0.30678950  0.00017850  0.75345200  1
  O  O12  1  0.69321050  0.00017850  0.24654800  1
  O  O13  1  0.69321050  0.00017850  0.75345200  1
  O  O14  1  0.50000000  0.68649000  0.50000000  1
  O  O15  1  0.00000000  0.79682100  0.50000000  1
  O  O16  1  0.00000000  0.81651400  0.00000000  1
  O  O17  1  0.80678950  0.50017850  0.24654800  1
  O  O18  1  0.80678950  0.50017850  0.75345200  1
  O  O19  1  0.19321050  0.50017850  0.24654800  1
  O  O20  1  0.19321050  0.50017850  0.75345200  1
  O  O21  1  0.00000000  0.18649000  0.50000000  1
  F  F22  1  0.50000000  0.70093000  0.00000000  1
  F  F23  1  0.00000000  0.20093000  0.00000000  1
