# generated using pymatgen
data_Li3VCr2O6
_symmetry_space_group_name_H-M   'P 1'
_cell_length_a   13.02087400
_cell_length_b   2.97214670
_cell_length_c   5.95444235
_cell_angle_alpha   90.00000000
_cell_angle_beta   103.99297437
_cell_angle_gamma   90.00000000
_symmetry_Int_Tables_number   1
_chemical_formula_structural   Li3VCr2O6
_chemical_formula_sum   'Li6 V2 Cr4 O12'
_cell_volume   223.59848956
_cell_formula_units_Z   2
loop_
 _symmetry_equiv_pos_site_id
 _symmetry_equiv_pos_as_xyz
  1  'x, y, z'
loop_
 _atom_site_type_symbol
 _atom_site_label
 _atom_site_symmetry_multiplicity
 _atom_site_fract_x
 _atom_site_fract_y
 _atom_site_fract_z
 _atom_site_occupancy
  Li  Li0  1  0.50000000  0.00000000  0.50000000  1
  Li  Li1  1  0.16910700  0.00000000  0.83435950  1
  Li  Li2  1  0.33089300  0.50000000  0.16564050  1
  Li  Li3  1  0.00000000  0.50000000  0.50000000  1
  Li  Li4  1  0.66910700  0.50000000  0.83435950  1
  Li  Li5  1  0.83089300  0.00000000  0.16564050  1
  V  V6  1  0.50000000  0.00000000  0.00000000  1
  V  V7  1  0.00000000  0.50000000  0.00000000  1
  Cr  Cr8  1  0.16718600  0.00000000  0.33381300  1
  Cr  Cr9  1  0.33281400  0.50000000  0.66618700  1
  Cr  Cr10  1  0.66718600  0.50000000  0.33381300  1
  Cr  Cr11  1  0.83281400  0.00000000  0.66618700  1
  O  O12  1  0.66388150  0.00000000  0.09925600  1
  O  O13  1  0.33611850  0.00000000  0.90074400  1
  O  O14  1  0.32811050  0.00000000  0.43092850  1
  O  O15  1  0.17188950  0.50000000  0.56907150  1
  O  O16  1  0.49484300  0.50000000  0.76095500  1
  O  O17  1  0.50515700  0.50000000  0.23904500  1
  O  O18  1  0.16388150  0.50000000  0.09925600  1
  O  O19  1  0.83611850  0.50000000  0.90074400  1
  O  O20  1  0.82811050  0.50000000  0.43092850  1
  O  O21  1  0.67188950  0.00000000  0.56907150  1
  O  O22  1  0.99484300  0.00000000  0.76095500  1
  O  O23  1  0.00515700  0.00000000  0.23904500  1
