# generated using pymatgen
data_Ni7(PO4)6
_symmetry_space_group_name_H-M   'P 1'
_cell_length_a   10.33992366
_cell_length_b   14.24157643
_cell_length_c   6.57155880
_cell_angle_alpha   90.00000000
_cell_angle_beta   105.87801489
_cell_angle_gamma   90.00000000
_symmetry_Int_Tables_number   1
_chemical_formula_structural   Ni7(PO4)6
_chemical_formula_sum   'Ni14 P12 O48'
_cell_volume   930.78526964
_cell_formula_units_Z   2
loop_
 _symmetry_equiv_pos_site_id
 _symmetry_equiv_pos_as_xyz
  1  'x, y, z'
loop_
 _atom_site_type_symbol
 _atom_site_label
 _atom_site_symmetry_multiplicity
 _atom_site_fract_x
 _atom_site_fract_y
 _atom_site_fract_z
 _atom_site_occupancy
  Ni  Ni0  1  0.67420700  0.31858200  0.80803600  1
  Ni  Ni1  1  0.00000000  0.00000000  0.00000000  1
  Ni  Ni2  1  0.67420700  0.68141800  0.80803600  1
  Ni  Ni3  1  0.82579300  0.81858200  0.19196400  1
  Ni  Ni4  1  0.50000000  0.82964850  0.00000000  1
  Ni  Ni5  1  0.50000000  0.17035150  0.00000000  1
  Ni  Ni6  1  0.82579300  0.18141800  0.19196400  1
  Ni  Ni7  1  0.17420700  0.81858200  0.80803600  1
  Ni  Ni8  1  0.50000000  0.50000000  0.00000000  1
  Ni  Ni9  1  0.17420700  0.18141800  0.80803600  1
  Ni  Ni10  1  0.32579300  0.31858200  0.19196400  1
  Ni  Ni11  1  0.00000000  0.32964850  0.00000000  1
  Ni  Ni12  1  0.00000000  0.67035150  0.00000000  1
  Ni  Ni13  1  0.32579300  0.68141800  0.19196400  1
  P  P14  1  0.59063300  0.68384700  0.29181700  1
  P  P15  1  0.40936700  0.68384700  0.70818300  1
  P  P16  1  0.67100500  0.00000000  0.92916700  1
  P  P17  1  0.40936700  0.31615300  0.70818300  1
  P  P18  1  0.59063300  0.31615300  0.29181700  1
  P  P19  1  0.32899500  0.00000000  0.07083300  1
  P  P20  1  0.09063300  0.18384700  0.29181700  1
  P  P21  1  0.90936700  0.18384700  0.70818300  1
  P  P22  1  0.17100500  0.50000000  0.92916700  1
  P  P23  1  0.90936700  0.81615300  0.70818300  1
  P  P24  1  0.09063300  0.81615300  0.29181700  1
  P  P25  1  0.82899500  0.50000000  0.07083300  1
  O  O26  1  0.66249600  0.09029700  0.06327300  1
  O  O27  1  0.18010500  0.16196400  0.50863400  1
  O  O28  1  0.31879200  0.28732600  0.86279500  1
  O  O29  1  0.50614500  0.39823300  0.79118000  1
  O  O30  1  0.66249600  0.90970300  0.06327300  1
  O  O31  1  0.50520500  0.23427300  0.71858900  1
  O  O32  1  0.48384400  0.76594900  0.27498700  1
  O  O33  1  0.81989500  0.16196400  0.49136600  1
  O  O34  1  0.31879200  0.71267400  0.86279500  1
  O  O35  1  0.50520500  0.76572700  0.71858900  1
  O  O36  1  0.18010500  0.83803600  0.50863400  1
  O  O37  1  0.44795850  0.00000000  0.24965800  1
  O  O38  1  0.67105000  0.71472400  0.13063800  1
  O  O39  1  0.80031700  0.00000000  0.85974900  1
  O  O40  1  0.49385500  0.60176700  0.20882000  1
  O  O41  1  0.19968300  0.00000000  0.14025100  1
  O  O42  1  0.32781450  0.90945050  0.92656400  1
  O  O43  1  0.49385500  0.39823300  0.20882000  1
  O  O44  1  0.50614500  0.60176700  0.79118000  1
  O  O45  1  0.67105000  0.28527600  0.13063800  1
  O  O46  1  0.81989500  0.83803600  0.49136600  1
  O  O47  1  0.48384400  0.23405100  0.27498700  1
  O  O48  1  0.55204150  0.00000000  0.75034200  1
  O  O49  1  0.32781450  0.09054950  0.92656400  1
  O  O50  1  0.16249600  0.59029700  0.06327300  1
  O  O51  1  0.68010500  0.66196400  0.50863400  1
  O  O52  1  0.81879200  0.78732600  0.86279500  1
  O  O53  1  0.00614500  0.89823300  0.79118000  1
  O  O54  1  0.16249600  0.40970300  0.06327300  1
  O  O55  1  0.00520500  0.73427300  0.71858900  1
  O  O56  1  0.98384400  0.26594900  0.27498700  1
  O  O57  1  0.31989500  0.66196400  0.49136600  1
  O  O58  1  0.81879200  0.21267400  0.86279500  1
  O  O59  1  0.00520500  0.26572700  0.71858900  1
  O  O60  1  0.68010500  0.33803600  0.50863400  1
  O  O61  1  0.94795850  0.50000000  0.24965800  1
  O  O62  1  0.17105000  0.21472400  0.13063800  1
  O  O63  1  0.30031700  0.50000000  0.85974900  1
  O  O64  1  0.99385500  0.10176700  0.20882000  1
  O  O65  1  0.69968300  0.50000000  0.14025100  1
  O  O66  1  0.82781450  0.40945050  0.92656400  1
  O  O67  1  0.99385500  0.89823300  0.20882000  1
  O  O68  1  0.00614500  0.10176700  0.79118000  1
  O  O69  1  0.17105000  0.78527600  0.13063800  1
  O  O70  1  0.31989500  0.33803600  0.49136600  1
  O  O71  1  0.98384400  0.73405100  0.27498700  1
  O  O72  1  0.05204150  0.50000000  0.75034200  1
  O  O73  1  0.82781450  0.59054950  0.92656400  1
