# generated using pymatgen
data_Co2OF3
_symmetry_space_group_name_H-M   'P 1'
_cell_length_a   6.42378958
_cell_length_b   6.83527174
_cell_length_c   6.28725020
_cell_angle_alpha   90.00000000
_cell_angle_beta   90.00000000
_cell_angle_gamma   90.00000000
_symmetry_Int_Tables_number   1
_chemical_formula_structural   Co2OF3
_chemical_formula_sum   'Co8 O4 F12'
_cell_volume   276.06276624
_cell_formula_units_Z   4
loop_
 _symmetry_equiv_pos_site_id
 _symmetry_equiv_pos_as_xyz
  1  'x, y, z'
loop_
 _atom_site_type_symbol
 _atom_site_label
 _atom_site_symmetry_multiplicity
 _atom_site_fract_x
 _atom_site_fract_y
 _atom_site_fract_z
 _atom_site_occupancy
  Co  Co0  1  0.03719050  0.50000000  0.75000000  1
  Co  Co1  1  0.96280950  0.50000000  0.25000000  1
  Co  Co2  1  0.50000000  0.50000000  0.50000000  1
  Co  Co3  1  0.50000000  0.50000000  0.00000000  1
  Co  Co4  1  0.53719050  0.00000000  0.75000000  1
  Co  Co5  1  0.46280950  0.00000000  0.25000000  1
  Co  Co6  1  0.00000000  0.00000000  0.50000000  1
  Co  Co7  1  0.00000000  0.00000000  0.00000000  1
  O  O8  1  0.30874750  0.50000000  0.75000000  1
  O  O9  1  0.69125250  0.50000000  0.25000000  1
  O  O10  1  0.80874750  0.00000000  0.75000000  1
  O  O11  1  0.19125250  0.00000000  0.25000000  1
  F  F12  1  0.28011100  0.50000000  0.25000000  1
  F  F13  1  0.71988900  0.50000000  0.75000000  1
  F  F14  1  0.50000000  0.19348400  0.50000000  1
  F  F15  1  0.50000000  0.19348400  0.00000000  1
  F  F16  1  0.50000000  0.80651600  0.50000000  1
  F  F17  1  0.50000000  0.80651600  0.00000000  1
  F  F18  1  0.78011100  0.00000000  0.25000000  1
  F  F19  1  0.21988900  0.00000000  0.75000000  1
  F  F20  1  0.00000000  0.69348400  0.50000000  1
  F  F21  1  0.00000000  0.69348400  0.00000000  1
  F  F22  1  0.00000000  0.30651600  0.50000000  1
  F  F23  1  0.00000000  0.30651600  0.00000000  1
