# generated using pymatgen
data_Li2MnV(P2O7)2
_symmetry_space_group_name_H-M   'P 1'
_cell_length_a   4.85806500
_cell_length_b   8.27989400
_cell_length_c   13.33835918
_cell_angle_alpha   90.00000000
_cell_angle_beta   91.42380393
_cell_angle_gamma   90.00000000
_symmetry_Int_Tables_number   1
_chemical_formula_structural   Li2MnV(P2O7)2
_chemical_formula_sum   'Li4 Mn2 V2 P8 O28'
_cell_volume   536.36002016
_cell_formula_units_Z   2
loop_
 _symmetry_equiv_pos_site_id
 _symmetry_equiv_pos_as_xyz
  1  'x, y, z'
loop_
 _atom_site_type_symbol
 _atom_site_label
 _atom_site_symmetry_multiplicity
 _atom_site_fract_x
 _atom_site_fract_y
 _atom_site_fract_z
 _atom_site_occupancy
  Li  Li0  1  0.16184400  0.63777500  0.33852000  1
  Li  Li1  1  0.33710800  0.13783300  0.16245300  1
  Li  Li2  1  0.66289200  0.63783300  0.83754700  1
  Li  Li3  1  0.83815600  0.13777500  0.66148000  1
  Mn  Mn4  1  0.14976700  0.00049700  0.36520700  1
  Mn  Mn5  1  0.85023300  0.50049700  0.63479300  1
  V  V6  1  0.35068500  0.50085700  0.13610700  1
  V  V7  1  0.64931500  0.00085700  0.86389300  1
  P  P8  1  0.13970700  0.82008600  0.74055000  1
  P  P9  1  0.16882800  0.21661300  0.95694000  1
  P  P10  1  0.33207600  0.71341600  0.54428100  1
  P  P11  1  0.35994700  0.32117100  0.76073100  1
  P  P12  1  0.64005300  0.82117100  0.23926900  1
  P  P13  1  0.66792400  0.21341600  0.45571900  1
  P  P14  1  0.83117200  0.71661300  0.04306000  1
  P  P15  1  0.86029300  0.32008600  0.25945000  1
  O  O16  1  0.00333700  0.15741800  0.24818200  1
  O  O17  1  0.05218700  0.46425600  0.24170500  1
  O  O18  1  0.09214300  0.32332700  0.69577700  1
  O  O19  1  0.14340800  0.56354600  0.54303400  1
  O  O20  1  0.12485600  0.67625300  0.07406100  1
  O  O21  1  0.21992300  0.84449800  0.62383100  1
  O  O22  1  0.18962100  0.30606200  0.05723000  1
  O  O23  1  0.28118000  0.34807300  0.87609900  1
  O  O24  1  0.31841100  0.79779800  0.44317600  1
  O  O25  1  0.35557100  0.06689300  0.95887900  1
  O  O26  1  0.36862500  0.17306600  0.42530000  1
  O  O27  1  0.40877400  0.82445100  0.80256500  1
  O  O28  1  0.44554500  0.96349600  0.25949600  1
  O  O29  1  0.50355400  0.15703200  0.75328600  1
  O  O30  1  0.49644600  0.65703200  0.24671400  1
  O  O31  1  0.55445500  0.46349600  0.74050400  1
  O  O32  1  0.59122600  0.32445100  0.19743500  1
  O  O33  1  0.63137500  0.67306600  0.57470000  1
  O  O34  1  0.64442900  0.56689300  0.04112100  1
  O  O35  1  0.68158900  0.29779800  0.55682400  1
  O  O36  1  0.71882000  0.84807300  0.12390100  1
  O  O37  1  0.81037900  0.80606200  0.94277000  1
  O  O38  1  0.78007700  0.34449800  0.37616900  1
  O  O39  1  0.87514400  0.17625300  0.92593900  1
  O  O40  1  0.85659200  0.06354600  0.45696600  1
  O  O41  1  0.90785700  0.82332700  0.30422300  1
  O  O42  1  0.94781300  0.96425600  0.75829500  1
  O  O43  1  0.99666300  0.65741800  0.75181800  1
