# generated using pymatgen
data_YbFeGe2O7
_symmetry_space_group_name_H-M   'P 1'
_cell_length_a   10.90597400
_cell_length_b   8.49334400
_cell_length_c   6.76979324
_cell_angle_alpha   90.00000000
_cell_angle_beta   117.55881410
_cell_angle_gamma   90.00000000
_symmetry_Int_Tables_number   1
_chemical_formula_structural   YbFeGe2O7
_chemical_formula_sum   'Yb4 Fe4 Ge8 O28'
_cell_volume   555.92363684
_cell_formula_units_Z   4
loop_
 _symmetry_equiv_pos_site_id
 _symmetry_equiv_pos_as_xyz
  1  'x, y, z'
loop_
 _atom_site_type_symbol
 _atom_site_label
 _atom_site_symmetry_multiplicity
 _atom_site_fract_x
 _atom_site_fract_y
 _atom_site_fract_z
 _atom_site_occupancy
  Yb  Yb0  1  0.00000000  0.79014400  0.00000000  1
  Yb  Yb1  1  0.00000000  0.20985600  0.00000000  1
  Yb  Yb2  1  0.50000000  0.29014400  0.00000000  1
  Yb  Yb3  1  0.50000000  0.70985600  0.00000000  1
  Fe  Fe4  1  0.00000000  0.69646800  0.50000000  1
  Fe  Fe5  1  0.00000000  0.30353200  0.50000000  1
  Fe  Fe6  1  0.50000000  0.19646800  0.50000000  1
  Fe  Fe7  1  0.50000000  0.80353200  0.50000000  1
  Ge  Ge8  1  0.72458800  0.50000000  0.53639900  1
  Ge  Ge9  1  0.27541200  0.50000000  0.46360100  1
  Ge  Ge10  1  0.79938200  0.50000000  0.08288100  1
  Ge  Ge11  1  0.20061800  0.50000000  0.91711900  1
  Ge  Ge12  1  0.22458800  0.00000000  0.53639900  1
  Ge  Ge13  1  0.77541200  0.00000000  0.46360100  1
  Ge  Ge14  1  0.29938200  0.00000000  0.08288100  1
  Ge  Ge15  1  0.70061800  0.00000000  0.91711900  1
  O  O16  1  0.88358450  0.83394150  0.57801400  1
  O  O17  1  0.11641550  0.83394150  0.42198600  1
  O  O18  1  0.11641550  0.16605850  0.42198600  1
  O  O19  1  0.88358450  0.16605850  0.57801400  1
  O  O20  1  0.12847700  0.50000000  0.52125100  1
  O  O21  1  0.87152300  0.50000000  0.47874900  1
  O  O22  1  0.36744900  0.50000000  0.95898900  1
  O  O23  1  0.63255100  0.50000000  0.04101100  1
  O  O24  1  0.10909450  0.31899250  0.81241800  1
  O  O25  1  0.89090550  0.31899250  0.18758200  1
  O  O26  1  0.10909450  0.68100750  0.81241800  1
  O  O27  1  0.89090550  0.68100750  0.18758200  1
  O  O28  1  0.17567800  0.50000000  0.16603900  1
  O  O29  1  0.82432200  0.50000000  0.83396100  1
  O  O30  1  0.38358450  0.33394150  0.57801400  1
  O  O31  1  0.61641550  0.33394150  0.42198600  1
  O  O32  1  0.61641550  0.66605850  0.42198600  1
  O  O33  1  0.38358450  0.66605850  0.57801400  1
  O  O34  1  0.62847700  0.00000000  0.52125100  1
  O  O35  1  0.37152300  0.00000000  0.47874900  1
  O  O36  1  0.86744900  0.00000000  0.95898900  1
  O  O37  1  0.13255100  0.00000000  0.04101100  1
  O  O38  1  0.60909450  0.81899250  0.81241800  1
  O  O39  1  0.39090550  0.81899250  0.18758200  1
  O  O40  1  0.60909450  0.18100750  0.81241800  1
  O  O41  1  0.39090550  0.18100750  0.18758200  1
  O  O42  1  0.67567800  0.00000000  0.16603900  1
  O  O43  1  0.32432200  0.00000000  0.83396100  1
