# generated using pymatgen
data_Co3OF5
_symmetry_space_group_name_H-M   'P 1'
_cell_length_a   6.60230000
_cell_length_b   6.77291400
_cell_length_c   9.42155645
_cell_angle_alpha   90.00000000
_cell_angle_beta   91.13251836
_cell_angle_gamma   90.00000000
_symmetry_Int_Tables_number   1
_chemical_formula_structural   Co3OF5
_chemical_formula_sum   'Co12 O4 F20'
_cell_volume   421.21965159
_cell_formula_units_Z   4
loop_
 _symmetry_equiv_pos_site_id
 _symmetry_equiv_pos_as_xyz
  1  'x, y, z'
loop_
 _atom_site_type_symbol
 _atom_site_label
 _atom_site_symmetry_multiplicity
 _atom_site_fract_x
 _atom_site_fract_y
 _atom_site_fract_z
 _atom_site_occupancy
  Co  Co0  1  0.97580300  0.00000000  0.66298400  1
  Co  Co1  1  0.02419700  0.00000000  0.33701600  1
  Co  Co2  1  0.00000000  0.00000000  0.00000000  1
  Co  Co3  1  0.50000000  0.00000000  0.50000000  1
  Co  Co4  1  0.50272900  0.00000000  0.82535300  1
  Co  Co5  1  0.49727100  0.00000000  0.17464700  1
  Co  Co6  1  0.47580300  0.50000000  0.66298400  1
  Co  Co7  1  0.52419700  0.50000000  0.33701600  1
  Co  Co8  1  0.50000000  0.50000000  0.00000000  1
  Co  Co9  1  0.00000000  0.50000000  0.50000000  1
  Co  Co10  1  0.00272900  0.50000000  0.82535300  1
  Co  Co11  1  0.99727100  0.50000000  0.17464700  1
  O  O12  1  0.32597800  0.00000000  0.35305500  1
  O  O13  1  0.67402200  0.00000000  0.64694500  1
  O  O14  1  0.82597800  0.50000000  0.35305500  1
  O  O15  1  0.17402200  0.50000000  0.64694500  1
  F  F16  1  0.50000000  0.70154400  0.50000000  1
  F  F17  1  0.49066550  0.69602350  0.83107100  1
  F  F18  1  0.50933450  0.69602350  0.16892900  1
  F  F19  1  0.28796300  0.00000000  0.65974900  1
  F  F20  1  0.30631700  0.00000000  0.99766900  1
  F  F21  1  0.69368300  0.00000000  0.00233100  1
  F  F22  1  0.71203700  0.00000000  0.34025100  1
  F  F23  1  0.50000000  0.29845600  0.50000000  1
  F  F24  1  0.49066550  0.30397650  0.83107100  1
  F  F25  1  0.50933450  0.30397650  0.16892900  1
  F  F26  1  0.00000000  0.20154400  0.50000000  1
  F  F27  1  0.99066550  0.19602350  0.83107100  1
  F  F28  1  0.00933450  0.19602350  0.16892900  1
  F  F29  1  0.78796300  0.50000000  0.65974900  1
  F  F30  1  0.80631700  0.50000000  0.99766900  1
  F  F31  1  0.19368300  0.50000000  0.00233100  1
  F  F32  1  0.21203700  0.50000000  0.34025100  1
  F  F33  1  0.00000000  0.79845600  0.50000000  1
  F  F34  1  0.99066550  0.80397650  0.83107100  1
  F  F35  1  0.00933450  0.80397650  0.16892900  1
