# generated using pymatgen
data_Mn5O8
_symmetry_space_group_name_H-M   'P 1'
_cell_length_a   5.99598417
_cell_length_b   5.99598417
_cell_length_c   15.38611691
_cell_angle_alpha   90.00000000
_cell_angle_beta   90.00000000
_cell_angle_gamma   120.00000000
_symmetry_Int_Tables_number   1
_chemical_formula_structural   Mn5O8
_chemical_formula_sum   'Mn15 O24'
_cell_volume   479.04974590
_cell_formula_units_Z   3
loop_
 _symmetry_equiv_pos_site_id
 _symmetry_equiv_pos_as_xyz
  1  'x, y, z'
loop_
 _atom_site_type_symbol
 _atom_site_label
 _atom_site_symmetry_multiplicity
 _atom_site_fract_x
 _atom_site_fract_y
 _atom_site_fract_z
 _atom_site_occupancy
  Mn  Mn0  1  0.33333333  0.66666667  0.16666667  1
  Mn  Mn1  1  0.00000000  0.00000000  0.00000000  1
  Mn  Mn2  1  0.00000000  0.50000000  0.00000000  1
  Mn  Mn3  1  0.50000000  0.50000000  0.00000000  1
  Mn  Mn4  1  0.50000000  0.00000000  0.00000000  1
  Mn  Mn5  1  1.00000000  1.00000000  0.50000000  1
  Mn  Mn6  1  0.66666667  0.33333333  0.33333333  1
  Mn  Mn7  1  0.66666667  0.83333333  0.33333333  1
  Mn  Mn8  1  0.16666667  0.83333333  0.33333333  1
  Mn  Mn9  1  0.16666667  0.33333333  0.33333333  1
  Mn  Mn10  1  0.66666667  0.33333333  0.83333333  1
  Mn  Mn11  1  0.33333333  0.66666667  0.66666667  1
  Mn  Mn12  1  0.33333333  0.16666667  0.66666667  1
  Mn  Mn13  1  0.83333333  0.16666667  0.66666667  1
  Mn  Mn14  1  0.83333333  0.66666667  0.66666667  1
  O  O15  1  0.00000000  0.00000000  0.26943800  1
  O  O16  1  0.02784467  0.51392233  0.26603533  1
  O  O17  1  0.48607767  0.51392233  0.26603533  1
  O  O18  1  0.48607767  0.97215533  0.26603533  1
  O  O19  1  0.18058900  0.36117800  0.06729800  1
  O  O20  1  0.18058900  0.81941100  0.06729800  1
  O  O21  1  0.63882200  0.81941100  0.06729800  1
  O  O22  1  0.66666667  0.33333333  0.06389533  1
  O  O23  1  0.66666667  0.33333333  0.60277133  1
  O  O24  1  0.69451133  0.84725567  0.59936867  1
  O  O25  1  0.15274433  0.84725567  0.59936867  1
  O  O26  1  0.15274433  0.30548867  0.59936867  1
  O  O27  1  0.84725567  0.69451133  0.40063133  1
  O  O28  1  0.84725567  0.15274433  0.40063133  1
  O  O29  1  0.30548867  0.15274433  0.40063133  1
  O  O30  1  0.33333333  0.66666667  0.39722867  1
  O  O31  1  0.33333333  0.66666667  0.93610467  1
  O  O32  1  0.36117800  0.18058900  0.93270200  1
  O  O33  1  0.81941100  0.18058900  0.93270200  1
  O  O34  1  0.81941100  0.63882200  0.93270200  1
  O  O35  1  0.51392233  0.02784467  0.73396467  1
  O  O36  1  0.51392233  0.48607767  0.73396467  1
  O  O37  1  0.97215533  0.48607767  0.73396467  1
  O  O38  1  0.00000000  0.00000000  0.73056200  1
