# generated using pymatgen
data_Li5V2Co5O12
_symmetry_space_group_name_H-M   'P 1'
_cell_length_a   5.05256400
_cell_length_b   9.09228800
_cell_length_c   9.85829650
_cell_angle_alpha   90.00000000
_cell_angle_beta   101.15312803
_cell_angle_gamma   90.00000000
_symmetry_Int_Tables_number   1
_chemical_formula_structural   Li5V2Co5O12
_chemical_formula_sum   'Li10 V4 Co10 O24'
_cell_volume   444.33061121
_cell_formula_units_Z   2
loop_
 _symmetry_equiv_pos_site_id
 _symmetry_equiv_pos_as_xyz
  1  'x, y, z'
loop_
 _atom_site_type_symbol
 _atom_site_label
 _atom_site_symmetry_multiplicity
 _atom_site_fract_x
 _atom_site_fract_y
 _atom_site_fract_z
 _atom_site_occupancy
  Li  Li0  1  0.75270400  0.92385000  0.24802700  1
  Li  Li1  1  0.25089100  0.57776200  0.75466300  1
  Li  Li2  1  0.24729600  0.92385000  0.75197300  1
  Li  Li3  1  0.74910900  0.57776200  0.24533700  1
  Li  Li4  1  0.00000000  0.92223000  0.00000000  1
  Li  Li5  1  0.25270400  0.42385000  0.24802700  1
  Li  Li6  1  0.75089100  0.07776200  0.75466300  1
  Li  Li7  1  0.74729600  0.42385000  0.75197300  1
  Li  Li8  1  0.24910900  0.07776200  0.24533700  1
  Li  Li9  1  0.50000000  0.42223000  0.00000000  1
  V  V10  1  0.50000000  0.75948200  0.00000000  1
  V  V11  1  0.00000000  0.74726600  0.50000000  1
  V  V12  1  0.00000000  0.25948200  0.00000000  1
  V  V13  1  0.50000000  0.24726600  0.50000000  1
  Co  Co14  1  0.50000000  0.57800800  0.50000000  1
  Co  Co15  1  0.75458550  0.75178850  0.75369000  1
  Co  Co16  1  0.24541450  0.75178850  0.24631000  1
  Co  Co17  1  0.50000000  0.91901400  0.50000000  1
  Co  Co18  1  0.00000000  0.58347300  0.00000000  1
  Co  Co19  1  0.00000000  0.07800800  0.50000000  1
  Co  Co20  1  0.25458550  0.25178850  0.75369000  1
  Co  Co21  1  0.74541450  0.25178850  0.24631000  1
  Co  Co22  1  0.00000000  0.41901400  0.50000000  1
  Co  Co23  1  0.50000000  0.08347300  0.00000000  1
  O  O24  1  0.64640550  0.59351050  0.88376400  1
  O  O25  1  0.35359450  0.59351050  0.11623600  1
  O  O26  1  0.64651850  0.74926050  0.38508600  1
  O  O27  1  0.35348150  0.74926050  0.61491400  1
  O  O28  1  0.61530600  0.90616200  0.88200100  1
  O  O29  1  0.38469400  0.90616200  0.11799900  1
  O  O30  1  0.11752450  0.59337150  0.37864900  1
  O  O31  1  0.88247550  0.59337150  0.62135100  1
  O  O32  1  0.15264400  0.74463300  0.88543500  1
  O  O33  1  0.84735600  0.74463300  0.11456500  1
  O  O34  1  0.11997700  0.90492600  0.37798300  1
  O  O35  1  0.88002300  0.90492600  0.62201700  1
  O  O36  1  0.14640550  0.09351050  0.88376400  1
  O  O37  1  0.85359450  0.09351050  0.11623600  1
  O  O38  1  0.14651850  0.24926050  0.38508600  1
  O  O39  1  0.85348150  0.24926050  0.61491400  1
  O  O40  1  0.11530600  0.40616200  0.88200100  1
  O  O41  1  0.88469400  0.40616200  0.11799900  1
  O  O42  1  0.61752450  0.09337150  0.37864900  1
  O  O43  1  0.38247550  0.09337150  0.62135100  1
  O  O44  1  0.65264400  0.24463300  0.88543500  1
  O  O45  1  0.34735600  0.24463300  0.11456500  1
  O  O46  1  0.61997700  0.40492600  0.37798300  1
  O  O47  1  0.38002300  0.40492600  0.62201700  1
