# generated using pymatgen
data_LiCoPO4
_symmetry_space_group_name_H-M   'P 1'
_cell_length_a   4.92520700
_cell_length_b   6.41642801
_cell_length_c   9.09885900
_cell_angle_alpha   90.00000000
_cell_angle_beta   90.00000000
_cell_angle_gamma   90.00000000
_symmetry_Int_Tables_number   1
_chemical_formula_structural   LiCoPO4
_chemical_formula_sum   'Li4 Co4 P4 O16'
_cell_volume   287.54429104
_cell_formula_units_Z   4
loop_
 _symmetry_equiv_pos_site_id
 _symmetry_equiv_pos_as_xyz
  1  'x, y, z'
loop_
 _atom_site_type_symbol
 _atom_site_label
 _atom_site_symmetry_multiplicity
 _atom_site_fract_x
 _atom_site_fract_y
 _atom_site_fract_z
 _atom_site_occupancy
  Li  Li0  1  0.95989650  0.75000000  0.16233200  1
  Li  Li1  1  0.45989650  0.25000000  0.33766800  1
  Li  Li2  1  0.54010350  0.75000000  0.66233200  1
  Li  Li3  1  0.04010350  0.25000000  0.83766800  1
  Co  Co4  1  0.50000000  0.50000000  0.00000000  1
  Co  Co5  1  0.00000000  0.50000000  0.50000000  1
  Co  Co6  1  0.50000000  0.00000000  0.00000000  1
  Co  Co7  1  0.00000000  0.00000000  0.50000000  1
  P  P8  1  0.97073650  0.25000000  0.17894800  1
  P  P9  1  0.47073650  0.75000000  0.32105200  1
  P  P10  1  0.52926350  0.25000000  0.67894800  1
  P  P11  1  0.02926350  0.75000000  0.82105200  1
  O  O12  1  0.27787150  0.25000000  0.13505100  1
  O  O13  1  0.77787150  0.75000000  0.36494900  1
  O  O14  1  0.22212850  0.25000000  0.63505100  1
  O  O15  1  0.72212850  0.75000000  0.86494900  1
  O  O16  1  0.42412550  0.75000000  0.14893700  1
  O  O17  1  0.92412550  0.25000000  0.35106300  1
  O  O18  1  0.07587450  0.75000000  0.64893700  1
  O  O19  1  0.57587450  0.25000000  0.85106300  1
  O  O20  1  0.83519450  0.05014250  0.11970500  1
  O  O21  1  0.83519450  0.44985750  0.11970500  1
  O  O22  1  0.33519450  0.55014250  0.38029500  1
  O  O23  1  0.33519450  0.94985750  0.38029500  1
  O  O24  1  0.66480550  0.05014250  0.61970500  1
  O  O25  1  0.66480550  0.44985750  0.61970500  1
  O  O26  1  0.16480550  0.55014250  0.88029500  1
  O  O27  1  0.16480550  0.94985750  0.88029500  1
