# generated using pymatgen
data_Li4MnCrO6
_symmetry_space_group_name_H-M   'P 1'
_cell_length_a   5.04845312
_cell_length_b   8.63801651
_cell_length_c   9.74271659
_cell_angle_alpha   90.00000000
_cell_angle_beta   99.13479944
_cell_angle_gamma   90.00000000
_symmetry_Int_Tables_number   1
_chemical_formula_structural   Li4MnCrO6
_chemical_formula_sum   'Li16 Mn4 Cr4 O24'
_cell_volume   419.47809835
_cell_formula_units_Z   4
loop_
 _symmetry_equiv_pos_site_id
 _symmetry_equiv_pos_as_xyz
  1  'x, y, z'
loop_
 _atom_site_type_symbol
 _atom_site_label
 _atom_site_symmetry_multiplicity
 _atom_site_fract_x
 _atom_site_fract_y
 _atom_site_fract_z
 _atom_site_occupancy
  Li  Li0  1  0.75000000  0.25000000  0.50000000  1
  Li  Li1  1  0.25000000  0.25000000  0.00000000  1
  Li  Li2  1  0.50000000  0.25289950  0.75000000  1
  Li  Li3  1  0.50000000  0.74710050  0.25000000  1
  Li  Li4  1  0.75993600  0.08945700  0.00083700  1
  Li  Li5  1  0.75993600  0.91054300  0.50083700  1
  Li  Li6  1  0.24006400  0.08945700  0.49916300  1
  Li  Li7  1  0.24006400  0.91054300  0.99916300  1
  Li  Li8  1  0.25000000  0.75000000  0.50000000  1
  Li  Li9  1  0.75000000  0.75000000  0.00000000  1
  Li  Li10  1  0.00000000  0.75289950  0.75000000  1
  Li  Li11  1  0.00000000  0.24710050  0.25000000  1
  Li  Li12  1  0.25993600  0.58945700  0.00083700  1
  Li  Li13  1  0.25993600  0.41054300  0.50083700  1
  Li  Li14  1  0.74006400  0.58945700  0.49916300  1
  Li  Li15  1  0.74006400  0.41054300  0.99916300  1
  Mn  Mn16  1  0.50000000  0.58228400  0.75000000  1
  Mn  Mn17  1  0.50000000  0.41771600  0.25000000  1
  Mn  Mn18  1  0.00000000  0.08228400  0.75000000  1
  Mn  Mn19  1  0.00000000  0.91771600  0.25000000  1
  Cr  Cr20  1  0.50000000  0.07885300  0.25000000  1
  Cr  Cr21  1  0.50000000  0.92114700  0.75000000  1
  Cr  Cr22  1  0.00000000  0.57885300  0.25000000  1
  Cr  Cr23  1  0.00000000  0.42114700  0.75000000  1
  O  O24  1  0.60392750  0.25015150  0.13634500  1
  O  O25  1  0.39607250  0.25015150  0.36365500  1
  O  O26  1  0.60392750  0.74984850  0.63634500  1
  O  O27  1  0.39607250  0.74984850  0.86365500  1
  O  O28  1  0.64364950  0.06932450  0.63867900  1
  O  O29  1  0.35635050  0.06932450  0.86132100  1
  O  O30  1  0.64364950  0.93067550  0.13867900  1
  O  O31  1  0.35635050  0.93067550  0.36132100  1
  O  O32  1  0.86364350  0.07064550  0.36343100  1
  O  O33  1  0.86364350  0.92935450  0.86343100  1
  O  O34  1  0.13635650  0.07064550  0.13656900  1
  O  O35  1  0.13635650  0.92935450  0.63656900  1
  O  O36  1  0.10392750  0.75015150  0.13634500  1
  O  O37  1  0.89607250  0.75015150  0.36365500  1
  O  O38  1  0.10392750  0.24984850  0.63634500  1
  O  O39  1  0.89607250  0.24984850  0.86365500  1
  O  O40  1  0.14364950  0.56932450  0.63867900  1
  O  O41  1  0.85635050  0.56932450  0.86132100  1
  O  O42  1  0.14364950  0.43067550  0.13867900  1
  O  O43  1  0.85635050  0.43067550  0.36132100  1
  O  O44  1  0.36364350  0.57064550  0.36343100  1
  O  O45  1  0.36364350  0.42935450  0.86343100  1
  O  O46  1  0.63635650  0.57064550  0.13656900  1
  O  O47  1  0.63635650  0.42935450  0.63656900  1
