# generated using pymatgen
data_V2O3F
_symmetry_space_group_name_H-M   'P 1'
_cell_length_a   6.41265877
_cell_length_b   7.20142572
_cell_length_c   5.90323166
_cell_angle_alpha   90.00000000
_cell_angle_beta   90.00000000
_cell_angle_gamma   90.00000000
_symmetry_Int_Tables_number   1
_chemical_formula_structural   V2O3F
_chemical_formula_sum   'V8 O12 F4'
_cell_volume   272.61292485
_cell_formula_units_Z   4
loop_
 _symmetry_equiv_pos_site_id
 _symmetry_equiv_pos_as_xyz
  1  'x, y, z'
loop_
 _atom_site_type_symbol
 _atom_site_label
 _atom_site_symmetry_multiplicity
 _atom_site_fract_x
 _atom_site_fract_y
 _atom_site_fract_z
 _atom_site_occupancy
  V  V0  1  0.00000000  0.50000000  0.00000000  1
  V  V1  1  0.00000000  0.50000000  0.50000000  1
  V  V2  1  0.00000000  0.94099950  0.75000000  1
  V  V3  1  0.00000000  0.05900050  0.25000000  1
  V  V4  1  0.50000000  0.00000000  0.00000000  1
  V  V5  1  0.50000000  0.00000000  0.50000000  1
  V  V6  1  0.50000000  0.44099950  0.75000000  1
  V  V7  1  0.50000000  0.55900050  0.25000000  1
  O  O8  1  0.00000000  0.30518850  0.25000000  1
  O  O9  1  0.00000000  0.69481150  0.75000000  1
  O  O10  1  0.80897550  0.00000000  0.50000000  1
  O  O11  1  0.80897550  0.00000000  0.00000000  1
  O  O12  1  0.19102450  0.00000000  0.50000000  1
  O  O13  1  0.19102450  0.00000000  0.00000000  1
  O  O14  1  0.50000000  0.80518850  0.25000000  1
  O  O15  1  0.50000000  0.19481150  0.75000000  1
  O  O16  1  0.30897550  0.50000000  0.50000000  1
  O  O17  1  0.30897550  0.50000000  0.00000000  1
  O  O18  1  0.69102450  0.50000000  0.50000000  1
  O  O19  1  0.69102450  0.50000000  0.00000000  1
  F  F20  1  0.00000000  0.30813900  0.75000000  1
  F  F21  1  0.00000000  0.69186100  0.25000000  1
  F  F22  1  0.50000000  0.80813900  0.75000000  1
  F  F23  1  0.50000000  0.19186100  0.25000000  1
