# generated using pymatgen
data_Li2CoNiO4
_symmetry_space_group_name_H-M   'P 1'
_cell_length_a   5.73501800
_cell_length_b   5.75433000
_cell_length_c   8.25442000
_cell_angle_alpha   90.00000000
_cell_angle_beta   90.00000000
_cell_angle_gamma   90.00000000
_symmetry_Int_Tables_number   1
_chemical_formula_structural   Li2CoNiO4
_chemical_formula_sum   'Li8 Co4 Ni4 O16'
_cell_volume   272.40565080
_cell_formula_units_Z   4
loop_
 _symmetry_equiv_pos_site_id
 _symmetry_equiv_pos_as_xyz
  1  'x, y, z'
loop_
 _atom_site_type_symbol
 _atom_site_label
 _atom_site_symmetry_multiplicity
 _atom_site_fract_x
 _atom_site_fract_y
 _atom_site_fract_z
 _atom_site_occupancy
  Li  Li0  1  0.25000000  0.25000000  0.75000000  1
  Li  Li1  1  0.50000000  0.00000000  0.00000000  1
  Li  Li2  1  0.50000000  0.50000000  0.00000000  1
  Li  Li3  1  0.75000000  0.25000000  0.75000000  1
  Li  Li4  1  0.75000000  0.75000000  0.25000000  1
  Li  Li5  1  0.00000000  0.50000000  0.50000000  1
  Li  Li6  1  0.00000000  0.00000000  0.50000000  1
  Li  Li7  1  0.25000000  0.75000000  0.25000000  1
  Co  Co8  1  0.75000000  0.75000000  0.75000000  1
  Co  Co9  1  0.25000000  0.75000000  0.75000000  1
  Co  Co10  1  0.25000000  0.25000000  0.25000000  1
  Co  Co11  1  0.75000000  0.25000000  0.25000000  1
  Ni  Ni12  1  0.00000000  0.00000000  0.00000000  1
  Ni  Ni13  1  0.00000000  0.50000000  0.00000000  1
  Ni  Ni14  1  0.50000000  0.50000000  0.50000000  1
  Ni  Ni15  1  0.50000000  0.00000000  0.50000000  1
  O  O16  1  0.00000000  0.52164600  0.74983500  1
  O  O17  1  0.73180500  0.75000000  0.51616700  1
  O  O18  1  0.23180500  0.75000000  0.98383300  1
  O  O19  1  0.50000000  0.52164600  0.75016500  1
  O  O20  1  0.00000000  0.97835400  0.74983500  1
  O  O21  1  0.26819500  0.75000000  0.51616700  1
  O  O22  1  0.76819500  0.75000000  0.98383300  1
  O  O23  1  0.50000000  0.97835400  0.75016500  1
  O  O24  1  0.50000000  0.02164600  0.24983500  1
  O  O25  1  0.23180500  0.25000000  0.01616700  1
  O  O26  1  0.73180500  0.25000000  0.48383300  1
  O  O27  1  0.00000000  0.02164600  0.25016500  1
  O  O28  1  0.50000000  0.47835400  0.24983500  1
  O  O29  1  0.76819500  0.25000000  0.01616700  1
  O  O30  1  0.26819500  0.25000000  0.48383300  1
  O  O31  1  0.00000000  0.47835400  0.25016500  1
