# generated using pymatgen
data_Li3MnNi3O8
_symmetry_space_group_name_H-M   'P 1'
_cell_length_a   5.80626745
_cell_length_b   5.80626745
_cell_length_c   14.61712490
_cell_angle_alpha   90.00000000
_cell_angle_beta   90.00000000
_cell_angle_gamma   120.00000000
_symmetry_Int_Tables_number   1
_chemical_formula_structural   Li3MnNi3O8
_chemical_formula_sum   'Li9 Mn3 Ni9 O24'
_cell_volume   426.76290470
_cell_formula_units_Z   3
loop_
 _symmetry_equiv_pos_site_id
 _symmetry_equiv_pos_as_xyz
  1  'x, y, z'
loop_
 _atom_site_type_symbol
 _atom_site_label
 _atom_site_symmetry_multiplicity
 _atom_site_fract_x
 _atom_site_fract_y
 _atom_site_fract_z
 _atom_site_occupancy
  Li  Li0  1  0.33333333  0.16666667  0.16666667  1
  Li  Li1  1  0.83333333  0.66666667  0.16666667  1
  Li  Li2  1  0.83333333  0.16666667  0.16666667  1
  Li  Li3  1  0.00000000  0.50000000  0.50000000  1
  Li  Li4  1  0.50000000  0.00000000  0.50000000  1
  Li  Li5  1  0.50000000  0.50000000  0.50000000  1
  Li  Li6  1  0.66666667  0.83333333  0.83333333  1
  Li  Li7  1  0.16666667  0.33333333  0.83333333  1
  Li  Li8  1  0.16666667  0.83333333  0.83333333  1
  Mn  Mn9  1  0.00000000  0.00000000  0.00000000  1
  Mn  Mn10  1  0.66666667  0.33333333  0.33333333  1
  Mn  Mn11  1  0.33333333  0.66666667  0.66666667  1
  Ni  Ni12  1  0.00000000  0.50000000  0.00000000  1
  Ni  Ni13  1  0.50000000  0.00000000  0.00000000  1
  Ni  Ni14  1  0.50000000  0.50000000  0.00000000  1
  Ni  Ni15  1  0.66666667  0.83333333  0.33333333  1
  Ni  Ni16  1  0.16666667  0.33333333  0.33333333  1
  Ni  Ni17  1  0.16666667  0.83333333  0.33333333  1
  Ni  Ni18  1  0.33333333  0.16666667  0.66666667  1
  Ni  Ni19  1  0.83333333  0.66666667  0.66666667  1
  Ni  Ni20  1  0.83333333  0.16666667  0.66666667  1
  O  O21  1  0.66666667  0.33333333  0.07027833  1
  O  O22  1  0.68509533  0.84254767  0.07320567  1
  O  O23  1  0.15745233  0.31490467  0.07320567  1
  O  O24  1  0.00000000  0.00000000  0.26305500  1
  O  O25  1  0.15745233  0.84254767  0.07320567  1
  O  O26  1  0.98157133  0.49078567  0.26012767  1
  O  O27  1  0.50921433  0.01842867  0.26012767  1
  O  O28  1  0.50921433  0.49078567  0.26012767  1
  O  O29  1  0.33333333  0.66666667  0.40361167  1
  O  O30  1  0.35176200  0.17588100  0.40653900  1
  O  O31  1  0.82411900  0.64823800  0.40653900  1
  O  O32  1  0.66666667  0.33333333  0.59638833  1
  O  O33  1  0.82411900  0.17588100  0.40653900  1
  O  O34  1  0.64823800  0.82411900  0.59346100  1
  O  O35  1  0.17588100  0.35176200  0.59346100  1
  O  O36  1  0.17588100  0.82411900  0.59346100  1
  O  O37  1  0.00000000  0.00000000  0.73694500  1
  O  O38  1  0.01842867  0.50921433  0.73987233  1
  O  O39  1  0.49078567  0.98157133  0.73987233  1
  O  O40  1  0.33333333  0.66666667  0.92972167  1
  O  O41  1  0.49078567  0.50921433  0.73987233  1
  O  O42  1  0.31490467  0.15745233  0.92679433  1
  O  O43  1  0.84254767  0.68509533  0.92679433  1
  O  O44  1  0.84254767  0.15745233  0.92679433  1
