# generated using pymatgen
data_FeH4(CO3)2
_symmetry_space_group_name_H-M   'P 1'
_cell_length_a   12.59058164
_cell_length_b   5.66061107
_cell_length_c   9.81092684
_cell_angle_alpha   90.00000000
_cell_angle_beta   128.90073125
_cell_angle_gamma   90.00000000
_symmetry_Int_Tables_number   1
_chemical_formula_structural   FeH4(CO3)2
_chemical_formula_sum   'Fe4 H16 C8 O24'
_cell_volume   544.16421768
_cell_formula_units_Z   4
loop_
 _symmetry_equiv_pos_site_id
 _symmetry_equiv_pos_as_xyz
  1  'x, y, z'
loop_
 _atom_site_type_symbol
 _atom_site_label
 _atom_site_symmetry_multiplicity
 _atom_site_fract_x
 _atom_site_fract_y
 _atom_site_fract_z
 _atom_site_occupancy
  Fe  Fe0  1  0.00000000  0.58276600  0.75000000  1
  Fe  Fe1  1  0.50000000  0.91723400  0.25000000  1
  Fe  Fe2  1  0.50000000  0.08276600  0.75000000  1
  Fe  Fe3  1  0.00000000  0.41723400  0.25000000  1
  H  H4  1  0.84585700  0.65353200  0.85639500  1
  H  H5  1  0.65414300  0.15353200  0.64360500  1
  H  H6  1  0.65414300  0.84646800  0.14360500  1
  H  H7  1  0.84585700  0.34646800  0.35639500  1
  H  H8  1  0.74100900  0.60818900  0.64597100  1
  H  H9  1  0.75899100  0.10818900  0.85402900  1
  H  H10  1  0.75899100  0.89181100  0.35402900  1
  H  H11  1  0.74100900  0.39181100  0.14597100  1
  H  H12  1  0.34585700  0.15353200  0.85639500  1
  H  H13  1  0.15414300  0.65353200  0.64360500  1
  H  H14  1  0.15414300  0.34646800  0.14360500  1
  H  H15  1  0.34585700  0.84646800  0.35639500  1
  H  H16  1  0.24100900  0.10818900  0.64597100  1
  H  H17  1  0.25899100  0.60818900  0.85402900  1
  H  H18  1  0.25899100  0.39181100  0.35402900  1
  H  H19  1  0.24100900  0.89181100  0.14597100  1
  C  C20  1  0.05137750  0.08374550  0.85222300  1
  C  C21  1  0.94862250  0.08374550  0.64777700  1
  C  C22  1  0.44862250  0.41625450  0.14777700  1
  C  C23  1  0.55137750  0.41625450  0.35222300  1
  C  C24  1  0.55137750  0.58374550  0.85222300  1
  C  C25  1  0.44862250  0.58374550  0.64777700  1
  C  C26  1  0.94862250  0.91625450  0.14777700  1
  C  C27  1  0.05137750  0.91625450  0.35222300  1
  O  O28  1  0.08936500  0.28293700  0.92768450  1
  O  O29  1  0.91063500  0.28293700  0.57231550  1
  O  O30  1  0.41063500  0.21706300  0.07231550  1
  O  O31  1  0.58936500  0.21706300  0.42768450  1
  O  O32  1  0.08989350  0.88432550  0.92840200  1
  O  O33  1  0.91010650  0.88432550  0.57159800  1
  O  O34  1  0.41010650  0.61567450  0.07159800  1
  O  O35  1  0.58989350  0.61567450  0.42840200  1
  O  O36  1  0.83468375  0.57918825  0.75654300  1
  O  O37  1  0.66531625  0.07918825  0.74345700  1
  O  O38  1  0.66531625  0.92081175  0.24345700  1
  O  O39  1  0.83468375  0.42081175  0.25654300  1
  O  O40  1  0.58936500  0.78293700  0.92768450  1
  O  O41  1  0.41063500  0.78293700  0.57231550  1
  O  O42  1  0.91063500  0.71706300  0.07231550  1
  O  O43  1  0.08936500  0.71706300  0.42768450  1
  O  O44  1  0.58989350  0.38432550  0.92840200  1
  O  O45  1  0.41010650  0.38432550  0.57159800  1
  O  O46  1  0.91010650  0.11567450  0.07159800  1
  O  O47  1  0.08989350  0.11567450  0.42840200  1
  O  O48  1  0.33468375  0.07918825  0.75654300  1
  O  O49  1  0.16531625  0.57918825  0.74345700  1
  O  O50  1  0.16531625  0.42081175  0.24345700  1
  O  O51  1  0.33468375  0.92081175  0.25654300  1
