# generated using pymatgen
data_Li4Cr3Ni3(SnO8)2
_symmetry_space_group_name_H-M   'P 1'
_cell_length_a   10.21975200
_cell_length_b   5.91291600
_cell_length_c   9.64011851
_cell_angle_alpha   90.00000000
_cell_angle_beta   90.80290026
_cell_angle_gamma   90.00000000
_symmetry_Int_Tables_number   1
_chemical_formula_structural   Li4Cr3Ni3(SnO8)2
_chemical_formula_sum   'Li8 Cr6 Ni6 Sn4 O32'
_cell_volume   582.48104370
_cell_formula_units_Z   2
loop_
 _symmetry_equiv_pos_site_id
 _symmetry_equiv_pos_as_xyz
  1  'x, y, z'
loop_
 _atom_site_type_symbol
 _atom_site_label
 _atom_site_symmetry_multiplicity
 _atom_site_fract_x
 _atom_site_fract_y
 _atom_site_fract_z
 _atom_site_occupancy
  Li  Li0  1  0.66617800  0.00000000  0.89078300  1
  Li  Li1  1  0.99909900  0.00000000  0.99398500  1
  Li  Li2  1  0.99782000  0.00000000  0.49536700  1
  Li  Li3  1  0.33449800  0.00000000  0.39483300  1
  Li  Li4  1  0.16617800  0.50000000  0.89078300  1
  Li  Li5  1  0.49909900  0.50000000  0.99398500  1
  Li  Li6  1  0.49782000  0.50000000  0.49536700  1
  Li  Li7  1  0.83449800  0.50000000  0.39483300  1
  Cr  Cr8  1  0.58831250  0.24601450  0.21689000  1
  Cr  Cr9  1  0.58831250  0.75398550  0.21689000  1
  Cr  Cr10  1  0.17093500  0.00000000  0.71853400  1
  Cr  Cr11  1  0.08831250  0.74601450  0.21689000  1
  Cr  Cr12  1  0.08831250  0.25398550  0.21689000  1
  Cr  Cr13  1  0.67093500  0.50000000  0.71853400  1
  Ni  Ni14  1  0.83113500  0.00000000  0.21251800  1
  Ni  Ni15  1  0.41471700  0.24594900  0.71369900  1
  Ni  Ni16  1  0.41471700  0.75405100  0.71369900  1
  Ni  Ni17  1  0.33113500  0.50000000  0.21251800  1
  Ni  Ni18  1  0.91471700  0.74594900  0.71369900  1
  Ni  Ni19  1  0.91471700  0.25405100  0.71369900  1
  Sn  Sn20  1  0.66683900  0.00000000  0.49559800  1
  Sn  Sn21  1  0.33732200  0.00000000  0.99216600  1
  Sn  Sn22  1  0.16683900  0.50000000  0.49559800  1
  Sn  Sn23  1  0.83732200  0.50000000  0.99216600  1
  O  O24  1  0.58317300  0.26429600  0.59959800  1
  O  O25  1  0.51667900  0.00000000  0.33785200  1
  O  O26  1  0.65095400  0.00000000  0.10691300  1
  O  O27  1  0.01026200  0.00000000  0.30689700  1
  O  O28  1  0.00667300  0.00000000  0.80547100  1
  O  O29  1  0.58317300  0.73570400  0.59959800  1
  O  O30  1  0.73614150  0.23002050  0.33687200  1
  O  O31  1  0.73614150  0.76997950  0.33687200  1
  O  O32  1  0.16259300  0.00000000  0.10064700  1
  O  O33  1  0.84175200  0.00000000  0.60121000  1
  O  O34  1  0.25349250  0.22163150  0.83940400  1
  O  O35  1  0.25349250  0.77836850  0.83940400  1
  O  O36  1  0.32326400  0.00000000  0.60841500  1
  O  O37  1  0.42571950  0.25827450  0.10007500  1
  O  O38  1  0.48252500  0.00000000  0.83357400  1
  O  O39  1  0.42571950  0.74172550  0.10007500  1
  O  O40  1  0.08317300  0.76429600  0.59959800  1
  O  O41  1  0.01667900  0.50000000  0.33785200  1
  O  O42  1  0.15095400  0.50000000  0.10691300  1
  O  O43  1  0.51026200  0.50000000  0.30689700  1
  O  O44  1  0.50667300  0.50000000  0.80547100  1
  O  O45  1  0.08317300  0.23570400  0.59959800  1
  O  O46  1  0.23614150  0.73002050  0.33687200  1
  O  O47  1  0.23614150  0.26997950  0.33687200  1
  O  O48  1  0.66259300  0.50000000  0.10064700  1
  O  O49  1  0.34175200  0.50000000  0.60121000  1
  O  O50  1  0.75349250  0.72163150  0.83940400  1
  O  O51  1  0.75349250  0.27836850  0.83940400  1
  O  O52  1  0.82326400  0.50000000  0.60841500  1
  O  O53  1  0.92571950  0.75827450  0.10007500  1
  O  O54  1  0.98252500  0.50000000  0.83357400  1
  O  O55  1  0.92571950  0.24172550  0.10007500  1
