# generated using pymatgen
data_Li4Fe3Cu2Sb3O16
_symmetry_space_group_name_H-M   'P 1'
_cell_length_a   10.57065834
_cell_length_b   6.14169682
_cell_length_c   9.94921866
_cell_angle_alpha   90.00000000
_cell_angle_beta   91.09243525
_cell_angle_gamma   90.00000000
_symmetry_Int_Tables_number   1
_chemical_formula_structural   Li4Fe3Cu2Sb3O16
_chemical_formula_sum   'Li8 Fe6 Cu4 Sb6 O32'
_cell_volume   645.80356842
_cell_formula_units_Z   2
loop_
 _symmetry_equiv_pos_site_id
 _symmetry_equiv_pos_as_xyz
  1  'x, y, z'
loop_
 _atom_site_type_symbol
 _atom_site_label
 _atom_site_symmetry_multiplicity
 _atom_site_fract_x
 _atom_site_fract_y
 _atom_site_fract_z
 _atom_site_occupancy
  Li  Li0  1  0.16546100  0.50000000  0.87681900  1
  Li  Li1  1  0.48935950  0.50000000  0.99154400  1
  Li  Li2  1  0.49166600  0.50000000  0.50280600  1
  Li  Li3  1  0.83134850  0.50000000  0.39651400  1
  Li  Li4  1  0.66546100  0.00000000  0.87681900  1
  Li  Li5  1  0.98935950  0.00000000  0.99154400  1
  Li  Li6  1  0.99166600  0.00000000  0.50280600  1
  Li  Li7  1  0.33134850  0.00000000  0.39651400  1
  Fe  Fe8  1  0.33528650  0.50000000  0.21753700  1
  Fe  Fe9  1  0.91688100  0.25069500  0.71568800  1
  Fe  Fe10  1  0.91688100  0.74930500  0.71568800  1
  Fe  Fe11  1  0.83528650  0.00000000  0.21753700  1
  Fe  Fe12  1  0.41688100  0.75069500  0.71568800  1
  Fe  Fe13  1  0.41688100  0.24930500  0.71568800  1
  Cu  Cu14  1  0.17231900  0.50000000  0.52962700  1
  Cu  Cu15  1  0.85058400  0.50000000  0.97863900  1
  Cu  Cu16  1  0.67231900  0.00000000  0.52962700  1
  Cu  Cu17  1  0.35058400  0.00000000  0.97863900  1
  Sb  Sb18  1  0.08947700  0.25130700  0.21445300  1
  Sb  Sb19  1  0.08947700  0.74869300  0.21445300  1
  Sb  Sb20  1  0.67222400  0.50000000  0.71678500  1
  Sb  Sb21  1  0.58947700  0.75130700  0.21445300  1
  Sb  Sb22  1  0.58947700  0.24869300  0.21445300  1
  Sb  Sb23  1  0.17222400  0.00000000  0.71678500  1
  O  O24  1  0.08191850  0.23091750  0.60350100  1
  O  O25  1  0.01785550  0.50000000  0.32764300  1
  O  O26  1  0.16605500  0.50000000  0.10013400  1
  O  O27  1  0.50861350  0.50000000  0.32008700  1
  O  O28  1  0.50572400  0.50000000  0.81342300  1
  O  O29  1  0.08191850  0.76908250  0.60350100  1
  O  O30  1  0.24752100  0.26199300  0.32094100  1
  O  O31  1  0.24752100  0.73800700  0.32094100  1
  O  O32  1  0.65677800  0.50000000  0.10092100  1
  O  O33  1  0.34128650  0.50000000  0.60740500  1
  O  O34  1  0.75807800  0.26929400  0.83233100  1
  O  O35  1  0.75807800  0.73070600  0.83233100  1
  O  O36  1  0.83097900  0.50000000  0.60345500  1
  O  O37  1  0.92786550  0.23735550  0.10540100  1
  O  O38  1  0.98162800  0.50000000  0.83501800  1
  O  O39  1  0.92786550  0.76264450  0.10540100  1
  O  O40  1  0.58191850  0.73091750  0.60350100  1
  O  O41  1  0.51785550  0.00000000  0.32764300  1
  O  O42  1  0.66605500  0.00000000  0.10013400  1
  O  O43  1  0.00861350  0.00000000  0.32008700  1
  O  O44  1  0.00572400  0.00000000  0.81342300  1
  O  O45  1  0.58191850  0.26908250  0.60350100  1
  O  O46  1  0.74752100  0.76199300  0.32094100  1
  O  O47  1  0.74752100  0.23800700  0.32094100  1
  O  O48  1  0.15677800  0.00000000  0.10092100  1
  O  O49  1  0.84128650  0.00000000  0.60740500  1
  O  O50  1  0.25807800  0.76929400  0.83233100  1
  O  O51  1  0.25807800  0.23070600  0.83233100  1
  O  O52  1  0.33097900  0.00000000  0.60345500  1
  O  O53  1  0.42786550  0.73735550  0.10540100  1
  O  O54  1  0.48162800  0.00000000  0.83501800  1
  O  O55  1  0.42786550  0.26264450  0.10540100  1
