# generated using pymatgen
data_Li5Nb2Ni5O12
_symmetry_space_group_name_H-M   'P 1'
_cell_length_a   6.00481646
_cell_length_b   17.97117521
_cell_length_c   5.14238757
_cell_angle_alpha   90.00000000
_cell_angle_beta   125.42499967
_cell_angle_gamma   90.00000000
_symmetry_Int_Tables_number   1
_chemical_formula_structural   Li5Nb2Ni5O12
_chemical_formula_sum   'Li10 Nb4 Ni10 O24'
_cell_volume   452.20149610
_cell_formula_units_Z   2
loop_
 _symmetry_equiv_pos_site_id
 _symmetry_equiv_pos_as_xyz
  1  'x, y, z'
loop_
 _atom_site_type_symbol
 _atom_site_label
 _atom_site_symmetry_multiplicity
 _atom_site_fract_x
 _atom_site_fract_y
 _atom_site_fract_z
 _atom_site_occupancy
  Li  Li0  1  0.00000000  0.29446600  0.50000000  1
  Li  Li1  1  0.50000000  0.20913650  0.00000000  1
  Li  Li2  1  0.00000000  0.37815500  0.00000000  1
  Li  Li3  1  0.50000000  0.03677300  0.00000000  1
  Li  Li4  1  0.00000000  0.04248150  0.00000000  1
  Li  Li5  1  0.50000000  0.79446600  0.50000000  1
  Li  Li6  1  0.00000000  0.70913650  0.00000000  1
  Li  Li7  1  0.50000000  0.87815500  0.00000000  1
  Li  Li8  1  0.00000000  0.53677300  0.00000000  1
  Li  Li9  1  0.50000000  0.54248150  0.00000000  1
  Nb  Nb10  1  0.50000000  0.37464900  0.00000000  1
  Nb  Nb11  1  0.00000000  0.12700750  0.50000000  1
  Nb  Nb12  1  0.00000000  0.87464900  0.00000000  1
  Nb  Nb13  1  0.50000000  0.62700750  0.50000000  1
  Ni  Ni14  1  0.50000000  0.46156550  0.50000000  1
  Ni  Ni15  1  0.00000000  0.46348100  0.50000000  1
  Ni  Ni16  1  0.50000000  0.12599200  0.50000000  1
  Ni  Ni17  1  0.50000000  0.29052600  0.50000000  1
  Ni  Ni18  1  0.00000000  0.21443700  0.00000000  1
  Ni  Ni19  1  0.00000000  0.96156550  0.50000000  1
  Ni  Ni20  1  0.50000000  0.96348100  0.50000000  1
  Ni  Ni21  1  0.00000000  0.62599200  0.50000000  1
  Ni  Ni22  1  0.00000000  0.79052600  0.50000000  1
  Ni  Ni23  1  0.50000000  0.71443700  0.00000000  1
  O  O24  1  0.25042250  0.04427650  0.50631000  1
  O  O25  1  0.25152650  0.20831650  0.49411600  1
  O  O26  1  0.73928300  0.29624500  0.99292700  1
  O  O27  1  0.73946050  0.45573450  0.00261400  1
  O  O28  1  0.76432100  0.12890400  0.02121200  1
  O  O29  1  0.23567900  0.12890400  0.97878800  1
  O  O30  1  0.74143550  0.37872750  0.48914500  1
  O  O31  1  0.25856450  0.37872750  0.51085500  1
  O  O32  1  0.74957750  0.04427650  0.49369000  1
  O  O33  1  0.74847350  0.20831650  0.50588400  1
  O  O34  1  0.26053950  0.45573450  0.99738600  1
  O  O35  1  0.26071700  0.29624500  0.00707300  1
  O  O36  1  0.75042250  0.54427650  0.50631000  1
  O  O37  1  0.75152650  0.70831650  0.49411600  1
  O  O38  1  0.23928300  0.79624500  0.99292700  1
  O  O39  1  0.23946050  0.95573450  0.00261400  1
  O  O40  1  0.26432100  0.62890400  0.02121200  1
  O  O41  1  0.73567900  0.62890400  0.97878800  1
  O  O42  1  0.24143550  0.87872750  0.48914500  1
  O  O43  1  0.75856450  0.87872750  0.51085500  1
  O  O44  1  0.24957750  0.54427650  0.49369000  1
  O  O45  1  0.24847350  0.70831650  0.50588400  1
  O  O46  1  0.76053950  0.95573450  0.99738600  1
  O  O47  1  0.76071700  0.79624500  0.00707300  1
