# generated using pymatgen
data_Li3Fe2SbO6
_symmetry_space_group_name_H-M   'P 1'
_cell_length_a   13.13242600
_cell_length_b   3.11588800
_cell_length_c   6.30726996
_cell_angle_alpha   90.00000000
_cell_angle_beta   103.74314418
_cell_angle_gamma   90.00000000
_symmetry_Int_Tables_number   1
_chemical_formula_structural   Li3Fe2SbO6
_chemical_formula_sum   'Li6 Fe4 Sb2 O12'
_cell_volume   250.69930649
_cell_formula_units_Z   2
loop_
 _symmetry_equiv_pos_site_id
 _symmetry_equiv_pos_as_xyz
  1  'x, y, z'
loop_
 _atom_site_type_symbol
 _atom_site_label
 _atom_site_symmetry_multiplicity
 _atom_site_fract_x
 _atom_site_fract_y
 _atom_site_fract_z
 _atom_site_occupancy
  Li  Li0  1  0.00000000  0.50000000  0.50000000  1
  Li  Li1  1  0.82844000  0.00000000  0.19305600  1
  Li  Li2  1  0.67156000  0.50000000  0.80694400  1
  Li  Li3  1  0.50000000  0.00000000  0.50000000  1
  Li  Li4  1  0.32844000  0.50000000  0.19305600  1
  Li  Li5  1  0.17156000  0.00000000  0.80694400  1
  Fe  Fe6  1  0.82757900  0.00000000  0.64042400  1
  Fe  Fe7  1  0.67242100  0.50000000  0.35957600  1
  Fe  Fe8  1  0.32757900  0.50000000  0.64042400  1
  Fe  Fe9  1  0.17242100  0.00000000  0.35957600  1
  Sb  Sb10  1  0.00000000  0.50000000  0.00000000  1
  Sb  Sb11  1  0.50000000  0.00000000  0.00000000  1
  O  O12  1  0.84605900  0.50000000  0.90044700  1
  O  O13  1  0.65940000  0.00000000  0.57657700  1
  O  O14  1  0.65394100  0.00000000  0.09955300  1
  O  O15  1  0.99361100  0.00000000  0.21443000  1
  O  O16  1  0.50638900  0.50000000  0.78557000  1
  O  O17  1  0.84060000  0.50000000  0.42342300  1
  O  O18  1  0.34605900  0.00000000  0.90044700  1
  O  O19  1  0.15940000  0.50000000  0.57657700  1
  O  O20  1  0.15394100  0.50000000  0.09955300  1
  O  O21  1  0.49361100  0.50000000  0.21443000  1
  O  O22  1  0.00638900  0.00000000  0.78557000  1
  O  O23  1  0.34060000  0.00000000  0.42342300  1
