# generated using pymatgen
data_Li4Ni2C4SO16
_symmetry_space_group_name_H-M   'P 1'
_cell_length_a   13.01393600
_cell_length_b   13.22885800
_cell_length_c   14.08844000
_cell_angle_alpha   90.00000000
_cell_angle_beta   90.00000000
_cell_angle_gamma   90.00000000
_symmetry_Int_Tables_number   1
_chemical_formula_structural   Li4Ni2C4SO16
_chemical_formula_sum   'Li32 Ni16 C32 S8 O128'
_cell_volume   2425.45894630
_cell_formula_units_Z   8
loop_
 _symmetry_equiv_pos_site_id
 _symmetry_equiv_pos_as_xyz
  1  'x, y, z'
loop_
 _atom_site_type_symbol
 _atom_site_label
 _atom_site_symmetry_multiplicity
 _atom_site_fract_x
 _atom_site_fract_y
 _atom_site_fract_z
 _atom_site_occupancy
  Li  Li0  1  0.75000000  0.95940400  0.25000000  1
  Li  Li1  1  0.95784400  0.75000000  0.25000000  1
  Li  Li2  1  0.20784400  0.00000000  0.00000000  1
  Li  Li3  1  0.50000000  0.70940400  0.00000000  1
  Li  Li4  1  0.75000000  0.54059600  0.25000000  1
  Li  Li5  1  0.54215600  0.75000000  0.25000000  1
  Li  Li6  1  0.79215600  0.00000000  0.00000000  1
  Li  Li7  1  0.50000000  0.29059600  0.00000000  1
  Li  Li8  1  0.75000000  0.45940400  0.75000000  1
  Li  Li9  1  0.95784400  0.25000000  0.75000000  1
  Li  Li10  1  0.20784400  0.50000000  0.50000000  1
  Li  Li11  1  0.50000000  0.20940400  0.50000000  1
  Li  Li12  1  0.75000000  0.04059600  0.75000000  1
  Li  Li13  1  0.54215600  0.25000000  0.75000000  1
  Li  Li14  1  0.79215600  0.50000000  0.50000000  1
  Li  Li15  1  0.50000000  0.79059600  0.50000000  1
  Li  Li16  1  0.25000000  0.95940400  0.75000000  1
  Li  Li17  1  0.45784400  0.75000000  0.75000000  1
  Li  Li18  1  0.70784400  0.00000000  0.50000000  1
  Li  Li19  1  0.00000000  0.70940400  0.50000000  1
  Li  Li20  1  0.25000000  0.54059600  0.75000000  1
  Li  Li21  1  0.04215600  0.75000000  0.75000000  1
  Li  Li22  1  0.29215600  0.00000000  0.50000000  1
  Li  Li23  1  0.00000000  0.29059600  0.50000000  1
  Li  Li24  1  0.25000000  0.45940400  0.25000000  1
  Li  Li25  1  0.45784400  0.25000000  0.25000000  1
  Li  Li26  1  0.70784400  0.50000000  0.00000000  1
  Li  Li27  1  0.00000000  0.20940400  0.00000000  1
  Li  Li28  1  0.25000000  0.04059600  0.25000000  1
  Li  Li29  1  0.04215600  0.25000000  0.25000000  1
  Li  Li30  1  0.29215600  0.50000000  0.00000000  1
  Li  Li31  1  0.00000000  0.79059600  0.00000000  1
  Ni  Ni32  1  0.62500000  0.12500000  0.12500000  1
  Ni  Ni33  1  0.37500000  0.87500000  0.12500000  1
  Ni  Ni34  1  0.87500000  0.12500000  0.37500000  1
  Ni  Ni35  1  0.12500000  0.87500000  0.37500000  1
  Ni  Ni36  1  0.62500000  0.62500000  0.62500000  1
  Ni  Ni37  1  0.37500000  0.37500000  0.62500000  1
  Ni  Ni38  1  0.87500000  0.62500000  0.87500000  1
  Ni  Ni39  1  0.12500000  0.37500000  0.87500000  1
  Ni  Ni40  1  0.12500000  0.12500000  0.62500000  1
  Ni  Ni41  1  0.87500000  0.87500000  0.62500000  1
  Ni  Ni42  1  0.37500000  0.12500000  0.87500000  1
  Ni  Ni43  1  0.62500000  0.87500000  0.87500000  1
  Ni  Ni44  1  0.12500000  0.62500000  0.12500000  1
  Ni  Ni45  1  0.87500000  0.37500000  0.12500000  1
  Ni  Ni46  1  0.37500000  0.62500000  0.37500000  1
  Ni  Ni47  1  0.62500000  0.37500000  0.37500000  1
  C  C48  1  0.90184250  0.90373050  0.41164200  1
  C  C49  1  0.65184250  0.15373050  0.33835800  1
  C  C50  1  0.59815750  0.90373050  0.08835800  1
  C  C51  1  0.40184250  0.09626950  0.08835800  1
  C  C52  1  0.84815750  0.15373050  0.16164200  1
  C  C53  1  0.65184250  0.34626950  0.16164200  1
  C  C54  1  0.09815750  0.09626950  0.41164200  1
  C  C55  1  0.84815750  0.34626950  0.33835800  1
  C  C56  1  0.90184250  0.40373050  0.91164200  1
  C  C57  1  0.65184250  0.65373050  0.83835800  1
  C  C58  1  0.59815750  0.40373050  0.58835800  1
  C  C59  1  0.40184250  0.59626950  0.58835800  1
  C  C60  1  0.84815750  0.65373050  0.66164200  1
  C  C61  1  0.65184250  0.84626950  0.66164200  1
  C  C62  1  0.09815750  0.59626950  0.91164200  1
  C  C63  1  0.84815750  0.84626950  0.83835800  1
  C  C64  1  0.40184250  0.90373050  0.91164200  1
  C  C65  1  0.15184250  0.15373050  0.83835800  1
  C  C66  1  0.09815750  0.90373050  0.58835800  1
  C  C67  1  0.90184250  0.09626950  0.58835800  1
  C  C68  1  0.34815750  0.15373050  0.66164200  1
  C  C69  1  0.15184250  0.34626950  0.66164200  1
  C  C70  1  0.59815750  0.09626950  0.91164200  1
  C  C71  1  0.34815750  0.34626950  0.83835800  1
  C  C72  1  0.40184250  0.40373050  0.41164200  1
  C  C73  1  0.15184250  0.65373050  0.33835800  1
  C  C74  1  0.09815750  0.40373050  0.08835800  1
  C  C75  1  0.90184250  0.59626950  0.08835800  1
  C  C76  1  0.34815750  0.65373050  0.16164200  1
  C  C77  1  0.15184250  0.84626950  0.16164200  1
  C  C78  1  0.59815750  0.59626950  0.41164200  1
  C  C79  1  0.34815750  0.84626950  0.33835800  1
  S  S80  1  0.00000000  0.00000000  0.00000000  1
  S  S81  1  0.75000000  0.75000000  0.25000000  1
  S  S82  1  0.00000000  0.50000000  0.50000000  1
  S  S83  1  0.75000000  0.25000000  0.75000000  1
  S  S84  1  0.50000000  0.00000000  0.50000000  1
  S  S85  1  0.25000000  0.75000000  0.75000000  1
  S  S86  1  0.50000000  0.50000000  0.00000000  1
  S  S87  1  0.25000000  0.25000000  0.25000000  1
  O  O88  1  0.89059250  0.97279500  0.34839250  1
  O  O89  1  0.56809000  0.93239600  0.44208500  1
  O  O90  1  0.84051750  0.90328400  0.48320450  1
  O  O91  1  0.59051750  0.15328400  0.26679550  1
  O  O92  1  0.65948250  0.90328400  0.01679550  1
  O  O93  1  0.72125050  0.08435800  0.34730350  1
  O  O94  1  0.93191000  0.93239600  0.05791500  1
  O  O95  1  0.93191000  0.56760400  0.44208500  1
  O  O96  1  0.72125050  0.41564200  0.15269650  1
  O  O97  1  0.34051750  0.09671600  0.01679550  1
  O  O98  1  0.64059250  0.22279500  0.40160750  1
  O  O99  1  0.56809000  0.56760400  0.05791500  1
  O  O100  1  0.60940750  0.97279500  0.15160750  1
  O  O101  1  0.39059250  0.02720500  0.15160750  1
  O  O102  1  0.97125050  0.83435800  0.40269650  1
  O  O103  1  0.77874950  0.08435800  0.15269650  1
  O  O104  1  0.47125050  0.16564200  0.09730350  1
  O  O105  1  0.77874950  0.41564200  0.34730350  1
  O  O106  1  0.85940750  0.22279500  0.09839250  1
  O  O107  1  0.64059250  0.27720500  0.09839250  1
  O  O108  1  0.68191000  0.68239600  0.19208500  1
  O  O109  1  0.10940750  0.02720500  0.34839250  1
  O  O110  1  0.90948250  0.15328400  0.23320450  1
  O  O111  1  0.52874950  0.83435800  0.09730350  1
  O  O112  1  0.81809000  0.68239600  0.30791500  1
  O  O113  1  0.81809000  0.81760400  0.19208500  1
  O  O114  1  0.02874950  0.16564200  0.40269650  1
  O  O115  1  0.59051750  0.34671600  0.23320450  1
  O  O116  1  0.15948250  0.09671600  0.48320450  1
  O  O117  1  0.90948250  0.34671600  0.26679550  1
  O  O118  1  0.68191000  0.81760400  0.30791500  1
  O  O119  1  0.85940750  0.27720500  0.40160750  1
  O  O120  1  0.89059250  0.47279500  0.84839250  1
  O  O121  1  0.56809000  0.43239600  0.94208500  1
  O  O122  1  0.84051750  0.40328400  0.98320450  1
  O  O123  1  0.59051750  0.65328400  0.76679550  1
  O  O124  1  0.65948250  0.40328400  0.51679550  1
  O  O125  1  0.72125050  0.58435800  0.84730350  1
  O  O126  1  0.93191000  0.43239600  0.55791500  1
  O  O127  1  0.93191000  0.06760400  0.94208500  1
  O  O128  1  0.72125050  0.91564200  0.65269650  1
  O  O129  1  0.34051750  0.59671600  0.51679550  1
  O  O130  1  0.64059250  0.72279500  0.90160750  1
  O  O131  1  0.56809000  0.06760400  0.55791500  1
  O  O132  1  0.60940750  0.47279500  0.65160750  1
  O  O133  1  0.39059250  0.52720500  0.65160750  1
  O  O134  1  0.97125050  0.33435800  0.90269650  1
  O  O135  1  0.77874950  0.58435800  0.65269650  1
  O  O136  1  0.47125050  0.66564200  0.59730350  1
  O  O137  1  0.77874950  0.91564200  0.84730350  1
  O  O138  1  0.85940750  0.72279500  0.59839250  1
  O  O139  1  0.64059250  0.77720500  0.59839250  1
  O  O140  1  0.68191000  0.18239600  0.69208500  1
  O  O141  1  0.10940750  0.52720500  0.84839250  1
  O  O142  1  0.90948250  0.65328400  0.73320450  1
  O  O143  1  0.52874950  0.33435800  0.59730350  1
  O  O144  1  0.81809000  0.18239600  0.80791500  1
  O  O145  1  0.81809000  0.31760400  0.69208500  1
  O  O146  1  0.02874950  0.66564200  0.90269650  1
  O  O147  1  0.59051750  0.84671600  0.73320450  1
  O  O148  1  0.15948250  0.59671600  0.98320450  1
  O  O149  1  0.90948250  0.84671600  0.76679550  1
  O  O150  1  0.68191000  0.31760400  0.80791500  1
  O  O151  1  0.85940750  0.77720500  0.90160750  1
  O  O152  1  0.39059250  0.97279500  0.84839250  1
  O  O153  1  0.06809000  0.93239600  0.94208500  1
  O  O154  1  0.34051750  0.90328400  0.98320450  1
  O  O155  1  0.09051750  0.15328400  0.76679550  1
  O  O156  1  0.15948250  0.90328400  0.51679550  1
  O  O157  1  0.22125050  0.08435800  0.84730350  1
  O  O158  1  0.43191000  0.93239600  0.55791500  1
  O  O159  1  0.43191000  0.56760400  0.94208500  1
  O  O160  1  0.22125050  0.41564200  0.65269650  1
  O  O161  1  0.84051750  0.09671600  0.51679550  1
  O  O162  1  0.14059250  0.22279500  0.90160750  1
  O  O163  1  0.06809000  0.56760400  0.55791500  1
  O  O164  1  0.10940750  0.97279500  0.65160750  1
  O  O165  1  0.89059250  0.02720500  0.65160750  1
  O  O166  1  0.47125050  0.83435800  0.90269650  1
  O  O167  1  0.27874950  0.08435800  0.65269650  1
  O  O168  1  0.97125050  0.16564200  0.59730350  1
  O  O169  1  0.27874950  0.41564200  0.84730350  1
  O  O170  1  0.35940750  0.22279500  0.59839250  1
  O  O171  1  0.14059250  0.27720500  0.59839250  1
  O  O172  1  0.18191000  0.68239600  0.69208500  1
  O  O173  1  0.60940750  0.02720500  0.84839250  1
  O  O174  1  0.40948250  0.15328400  0.73320450  1
  O  O175  1  0.02874950  0.83435800  0.59730350  1
  O  O176  1  0.31809000  0.68239600  0.80791500  1
  O  O177  1  0.31809000  0.81760400  0.69208500  1
  O  O178  1  0.52874950  0.16564200  0.90269650  1
  O  O179  1  0.09051750  0.34671600  0.73320450  1
  O  O180  1  0.65948250  0.09671600  0.98320450  1
  O  O181  1  0.40948250  0.34671600  0.76679550  1
  O  O182  1  0.18191000  0.81760400  0.80791500  1
  O  O183  1  0.35940750  0.27720500  0.90160750  1
  O  O184  1  0.39059250  0.47279500  0.34839250  1
  O  O185  1  0.06809000  0.43239600  0.44208500  1
  O  O186  1  0.34051750  0.40328400  0.48320450  1
  O  O187  1  0.09051750  0.65328400  0.26679550  1
  O  O188  1  0.15948250  0.40328400  0.01679550  1
  O  O189  1  0.22125050  0.58435800  0.34730350  1
  O  O190  1  0.43191000  0.43239600  0.05791500  1
  O  O191  1  0.43191000  0.06760400  0.44208500  1
  O  O192  1  0.22125050  0.91564200  0.15269650  1
  O  O193  1  0.84051750  0.59671600  0.01679550  1
  O  O194  1  0.14059250  0.72279500  0.40160750  1
  O  O195  1  0.06809000  0.06760400  0.05791500  1
  O  O196  1  0.10940750  0.47279500  0.15160750  1
  O  O197  1  0.89059250  0.52720500  0.15160750  1
  O  O198  1  0.47125050  0.33435800  0.40269650  1
  O  O199  1  0.27874950  0.58435800  0.15269650  1
  O  O200  1  0.97125050  0.66564200  0.09730350  1
  O  O201  1  0.27874950  0.91564200  0.34730350  1
  O  O202  1  0.35940750  0.72279500  0.09839250  1
  O  O203  1  0.14059250  0.77720500  0.09839250  1
  O  O204  1  0.18191000  0.18239600  0.19208500  1
  O  O205  1  0.60940750  0.52720500  0.34839250  1
  O  O206  1  0.40948250  0.65328400  0.23320450  1
  O  O207  1  0.02874950  0.33435800  0.09730350  1
  O  O208  1  0.31809000  0.18239600  0.30791500  1
  O  O209  1  0.31809000  0.31760400  0.19208500  1
  O  O210  1  0.52874950  0.66564200  0.40269650  1
  O  O211  1  0.09051750  0.84671600  0.23320450  1
  O  O212  1  0.65948250  0.59671600  0.48320450  1
  O  O213  1  0.40948250  0.84671600  0.26679550  1
  O  O214  1  0.18191000  0.31760400  0.30791500  1
  O  O215  1  0.35940750  0.77720500  0.40160750  1
