# generated using pymatgen
data_LiFePO4
_symmetry_space_group_name_H-M   'P 1'
_cell_length_a   6.28865341
_cell_length_b   7.74811300
_cell_length_c   16.32515242
_cell_angle_alpha   90.00000000
_cell_angle_beta   97.44537851
_cell_angle_gamma   90.00000000
_symmetry_Int_Tables_number   1
_chemical_formula_structural   LiFePO4
_chemical_formula_sum   'Li8 Fe8 P8 O32'
_cell_volume   788.73974129
_cell_formula_units_Z   8
loop_
 _symmetry_equiv_pos_site_id
 _symmetry_equiv_pos_as_xyz
  1  'x, y, z'
loop_
 _atom_site_type_symbol
 _atom_site_label
 _atom_site_symmetry_multiplicity
 _atom_site_fract_x
 _atom_site_fract_y
 _atom_site_fract_z
 _atom_site_occupancy
  Li  Li0  1  0.87375150  0.67309750  0.06276150  1
  Li  Li1  1  0.12624850  0.67309750  0.43723850  1
  Li  Li2  1  0.87375150  0.32690250  0.56276150  1
  Li  Li3  1  0.12624850  0.32690250  0.93723850  1
  Li  Li4  1  0.37375150  0.17309750  0.06276150  1
  Li  Li5  1  0.62624850  0.17309750  0.43723850  1
  Li  Li6  1  0.37375150  0.82690250  0.56276150  1
  Li  Li7  1  0.62624850  0.82690250  0.93723850  1
  Fe  Fe8  1  0.74544900  0.42271200  0.74892850  1
  Fe  Fe9  1  0.25455100  0.57728800  0.25107150  1
  Fe  Fe10  1  0.74544900  0.57728800  0.24892850  1
  Fe  Fe11  1  0.25455100  0.42271200  0.75107150  1
  Fe  Fe12  1  0.24544900  0.92271200  0.74892850  1
  Fe  Fe13  1  0.75455100  0.07728800  0.25107150  1
  Fe  Fe14  1  0.24544900  0.07728800  0.24892850  1
  Fe  Fe15  1  0.75455100  0.92271200  0.75107150  1
  P  P16  1  0.95524150  0.32654550  0.36279250  1
  P  P17  1  0.04475850  0.32654550  0.13720750  1
  P  P18  1  0.95524150  0.67345450  0.86279250  1
  P  P19  1  0.04475850  0.67345450  0.63720750  1
  P  P20  1  0.45524150  0.82654550  0.36279250  1
  P  P21  1  0.54475850  0.82654550  0.13720750  1
  P  P22  1  0.45524150  0.17345450  0.86279250  1
  P  P23  1  0.54475850  0.17345450  0.63720750  1
  O  O24  1  0.73987300  0.32868700  0.30061150  1
  O  O25  1  0.73987300  0.67131300  0.80061150  1
  O  O26  1  0.26012700  0.32868700  0.19938850  1
  O  O27  1  0.26012700  0.67131300  0.69938850  1
  O  O28  1  0.92341550  0.16307350  0.16080350  1
  O  O29  1  0.92341550  0.83692650  0.66080350  1
  O  O30  1  0.07658450  0.16307350  0.33919650  1
  O  O31  1  0.07658450  0.83692650  0.83919650  1
  O  O32  1  0.92782700  0.50070700  0.15397150  1
  O  O33  1  0.92782700  0.49929300  0.65397150  1
  O  O34  1  0.07217300  0.50070700  0.34602850  1
  O  O35  1  0.07217300  0.49929300  0.84602850  1
  O  O36  1  0.90301500  0.31509200  0.45085350  1
  O  O37  1  0.90301500  0.68490800  0.95085350  1
  O  O38  1  0.09698500  0.31509200  0.04914650  1
  O  O39  1  0.09698500  0.68490800  0.54914650  1
  O  O40  1  0.23987300  0.82868700  0.30061150  1
  O  O41  1  0.23987300  0.17131300  0.80061150  1
  O  O42  1  0.76012700  0.82868700  0.19938850  1
  O  O43  1  0.76012700  0.17131300  0.69938850  1
  O  O44  1  0.42341550  0.66307350  0.16080350  1
  O  O45  1  0.42341550  0.33692650  0.66080350  1
  O  O46  1  0.57658450  0.66307350  0.33919650  1
  O  O47  1  0.57658450  0.33692650  0.83919650  1
  O  O48  1  0.42782700  0.00070700  0.15397150  1
  O  O49  1  0.42782700  0.99929300  0.65397150  1
  O  O50  1  0.57217300  0.00070700  0.34602850  1
  O  O51  1  0.57217300  0.99929300  0.84602850  1
  O  O52  1  0.40301500  0.81509200  0.45085350  1
  O  O53  1  0.40301500  0.18490800  0.95085350  1
  O  O54  1  0.59698500  0.81509200  0.04914650  1
  O  O55  1  0.59698500  0.18490800  0.54914650  1
