# generated using pymatgen
data_Li2VF7
_symmetry_space_group_name_H-M   'P 1'
_cell_length_a   5.88755600
_cell_length_b   6.31965400
_cell_length_c   8.08036200
_cell_angle_alpha   90.00000000
_cell_angle_beta   90.00000000
_cell_angle_gamma   90.00000000
_symmetry_Int_Tables_number   1
_chemical_formula_structural   Li2VF7
_chemical_formula_sum   'Li4 V2 F14'
_cell_volume   300.64858900
_cell_formula_units_Z   2
loop_
 _symmetry_equiv_pos_site_id
 _symmetry_equiv_pos_as_xyz
  1  'x, y, z'
loop_
 _atom_site_type_symbol
 _atom_site_label
 _atom_site_symmetry_multiplicity
 _atom_site_fract_x
 _atom_site_fract_y
 _atom_site_fract_z
 _atom_site_occupancy
  Li  Li0  1  0.00000000  0.24161150  0.36493950  1
  Li  Li1  1  0.00000000  0.75838850  0.36493950  1
  Li  Li2  1  0.50000000  0.74161150  0.86493950  1
  Li  Li3  1  0.50000000  0.25838850  0.86493950  1
  V  V4  1  0.50000000  0.00000000  0.49278400  1
  V  V5  1  0.00000000  0.50000000  0.99278400  1
  F  F6  1  0.28104900  0.20341600  0.50193700  1
  F  F7  1  0.28104900  0.79658400  0.50193700  1
  F  F8  1  0.50000000  0.00000000  0.73168100  1
  F  F9  1  0.00000000  0.00000000  0.25837800  1
  F  F10  1  0.71895100  0.20341600  0.50193700  1
  F  F11  1  0.71895100  0.79658400  0.50193700  1
  F  F12  1  0.50000000  0.00000000  0.27673000  1
  F  F13  1  0.78104900  0.70341600  0.00193700  1
  F  F14  1  0.78104900  0.29658400  0.00193700  1
  F  F15  1  0.00000000  0.50000000  0.23168100  1
  F  F16  1  0.50000000  0.50000000  0.75837800  1
  F  F17  1  0.21895100  0.70341600  0.00193700  1
  F  F18  1  0.21895100  0.29658400  0.00193700  1
  F  F19  1  0.00000000  0.50000000  0.77673000  1
