# generated using pymatgen
data_LiMn2O3F
_symmetry_space_group_name_H-M   'P 1'
_cell_length_a   5.84175890
_cell_length_b   6.13683622
_cell_length_c   8.77417126
_cell_angle_alpha   90.00000000
_cell_angle_beta   90.00000000
_cell_angle_gamma   90.00000000
_symmetry_Int_Tables_number   1
_chemical_formula_structural   LiMn2O3F
_chemical_formula_sum   'Li4 Mn8 O12 F4'
_cell_volume   314.55331726
_cell_formula_units_Z   4
loop_
 _symmetry_equiv_pos_site_id
 _symmetry_equiv_pos_as_xyz
  1  'x, y, z'
loop_
 _atom_site_type_symbol
 _atom_site_label
 _atom_site_symmetry_multiplicity
 _atom_site_fract_x
 _atom_site_fract_y
 _atom_site_fract_z
 _atom_site_occupancy
  Li  Li0  1  0.47010100  0.75000000  0.64618900  1
  Li  Li1  1  0.97010100  0.75000000  0.85381100  1
  Li  Li2  1  0.02989900  0.25000000  0.14618900  1
  Li  Li3  1  0.52989900  0.25000000  0.35381100  1
  Mn  Mn4  1  0.24744900  0.75000000  0.26026000  1
  Mn  Mn5  1  0.75255100  0.25000000  0.73974000  1
  Mn  Mn6  1  0.50000000  0.00000000  0.00000000  1
  Mn  Mn7  1  0.50000000  0.50000000  0.00000000  1
  Mn  Mn8  1  0.25255100  0.25000000  0.76026000  1
  Mn  Mn9  1  0.74744900  0.75000000  0.23974000  1
  Mn  Mn10  1  0.00000000  0.00000000  0.50000000  1
  Mn  Mn11  1  0.00000000  0.50000000  0.50000000  1
  O  O12  1  0.29903400  0.25000000  0.00708400  1
  O  O13  1  0.70096600  0.75000000  0.99291600  1
  O  O14  1  0.79903400  0.25000000  0.49291600  1
  O  O15  1  0.20096600  0.75000000  0.50708400  1
  O  O16  1  0.00660500  0.03554500  0.72616000  1
  O  O17  1  0.50660500  0.46445500  0.77384000  1
  O  O18  1  0.00660500  0.46445500  0.72616000  1
  O  O19  1  0.49339500  0.96445500  0.22616000  1
  O  O20  1  0.50660500  0.03554500  0.77384000  1
  O  O21  1  0.99339500  0.96445500  0.27384000  1
  O  O22  1  0.99339500  0.53554500  0.27384000  1
  O  O23  1  0.49339500  0.53554500  0.22616000  1
  F  F24  1  0.22089900  0.75000000  0.99597900  1
  F  F25  1  0.77910100  0.25000000  0.00402100  1
  F  F26  1  0.72089900  0.75000000  0.50402100  1
  F  F27  1  0.27910100  0.25000000  0.49597900  1
