# generated using pymatgen
data_Hf5N5O2
_symmetry_space_group_name_H-M   'P 1'
_cell_length_a   10.41914200
_cell_length_b   3.06748000
_cell_length_c   9.11705535
_cell_angle_alpha   90.00000000
_cell_angle_beta   105.47154756
_cell_angle_gamma   90.00000000
_symmetry_Int_Tables_number   1
_chemical_formula_structural   Hf5N5O2
_chemical_formula_sum   'Hf10 N10 O4'
_cell_volume   280.82680335
_cell_formula_units_Z   2
loop_
 _symmetry_equiv_pos_site_id
 _symmetry_equiv_pos_as_xyz
  1  'x, y, z'
loop_
 _atom_site_type_symbol
 _atom_site_label
 _atom_site_symmetry_multiplicity
 _atom_site_fract_x
 _atom_site_fract_y
 _atom_site_fract_z
 _atom_site_occupancy
  Hf  Hf0  1  0.88595400  0.00000000  0.57664700  1
  Hf  Hf1  1  0.79772300  0.50000000  0.19306900  1
  Hf  Hf2  1  0.70227700  0.00000000  0.80693100  1
  Hf  Hf3  1  0.61404600  0.50000000  0.42335300  1
  Hf  Hf4  1  0.00000000  0.00000000  0.00000000  1
  Hf  Hf5  1  0.38595400  0.50000000  0.57664700  1
  Hf  Hf6  1  0.29772300  0.00000000  0.19306900  1
  Hf  Hf7  1  0.20227700  0.50000000  0.80693100  1
  Hf  Hf8  1  0.11404600  0.00000000  0.42335300  1
  Hf  Hf9  1  0.50000000  0.50000000  0.00000000  1
  N  N10  1  0.00000000  0.50000000  0.50000000  1
  N  N11  1  0.84471800  0.50000000  0.94810600  1
  N  N12  1  0.76146200  0.50000000  0.64790700  1
  N  N13  1  0.73853800  0.00000000  0.35209300  1
  N  N14  1  0.65528200  0.00000000  0.05189400  1
  N  N15  1  0.50000000  0.00000000  0.50000000  1
  N  N16  1  0.34471800  0.00000000  0.94810600  1
  N  N17  1  0.26146200  0.00000000  0.64790700  1
  N  N18  1  0.23853800  0.50000000  0.35209300  1
  N  N19  1  0.15528200  0.50000000  0.05189400  1
  O  O20  1  0.95500900  0.00000000  0.21288300  1
  O  O21  1  0.54499100  0.50000000  0.78711700  1
  O  O22  1  0.45500900  0.50000000  0.21288300  1
  O  O23  1  0.04499100  0.00000000  0.78711700  1
