# generated using pymatgen
data_NaCoAsCO7
_symmetry_space_group_name_H-M   'P 1'
_cell_length_a   5.33175000
_cell_length_b   6.23489800
_cell_length_c   9.24573350
_cell_angle_alpha   90.00000000
_cell_angle_beta   93.13497622
_cell_angle_gamma   90.00000000
_symmetry_Int_Tables_number   1
_chemical_formula_structural   NaCoAsCO7
_chemical_formula_sum   'Na2 Co2 As2 C2 O14'
_cell_volume   306.89518952
_cell_formula_units_Z   2
loop_
 _symmetry_equiv_pos_site_id
 _symmetry_equiv_pos_as_xyz
  1  'x, y, z'
loop_
 _atom_site_type_symbol
 _atom_site_label
 _atom_site_symmetry_multiplicity
 _atom_site_fract_x
 _atom_site_fract_y
 _atom_site_fract_z
 _atom_site_occupancy
  Na  Na0  1  0.76427000  0.47849800  0.23012800  1
  Na  Na1  1  0.23573000  0.97849800  0.76987200  1
  Co  Co2  1  0.21400300  0.75840500  0.33243500  1
  Co  Co3  1  0.78599700  0.25840500  0.66756500  1
  As  As4  1  0.28297500  0.25240700  0.43877900  1
  As  As5  1  0.71702500  0.75240700  0.56122100  1
  C  C6  1  0.27379600  0.74631300  0.08134800  1
  C  C7  1  0.72620400  0.24631300  0.91865200  1
  O  O8  1  0.69206500  0.24593000  0.04888700  1
  O  O9  1  0.05530000  0.74998100  0.14095900  1
  O  O10  1  0.45492500  0.74502100  0.18644100  1
  O  O11  1  0.21216500  0.04973100  0.31341200  1
  O  O12  1  0.20155000  0.45714700  0.31845600  1
  O  O13  1  0.87866500  0.74611000  0.40710200  1
  O  O14  1  0.60355400  0.26830800  0.47897300  1
  O  O15  1  0.39644600  0.76830800  0.52102700  1
  O  O16  1  0.12133500  0.24611000  0.59289800  1
  O  O17  1  0.79845000  0.95714700  0.68154400  1
  O  O18  1  0.78783500  0.54973100  0.68658800  1
  O  O19  1  0.54507500  0.24502100  0.81355900  1
  O  O20  1  0.94470000  0.24998100  0.85904100  1
  O  O21  1  0.30793500  0.74593000  0.95111300  1
