# generated using pymatgen
data_Li3MnFe2(BO3)3
_symmetry_space_group_name_H-M   'P 1'
_cell_length_a   8.25993000
_cell_length_b   3.15082500
_cell_length_c   14.28893849
_cell_angle_alpha   90.00000000
_cell_angle_beta   90.01503274
_cell_angle_gamma   90.00000000
_symmetry_Int_Tables_number   1
_chemical_formula_structural   Li3MnFe2(BO3)3
_chemical_formula_sum   'Li6 Mn2 Fe4 B6 O18'
_cell_volume   371.87809825
_cell_formula_units_Z   2
loop_
 _symmetry_equiv_pos_site_id
 _symmetry_equiv_pos_as_xyz
  1  'x, y, z'
loop_
 _atom_site_type_symbol
 _atom_site_label
 _atom_site_symmetry_multiplicity
 _atom_site_fract_x
 _atom_site_fract_y
 _atom_site_fract_z
 _atom_site_occupancy
  Li  Li0  1  0.29179600  0.50000000  0.99117000  1
  Li  Li1  1  0.33998400  0.50000000  0.35762800  1
  Li  Li2  1  0.36472700  0.50000000  0.65082800  1
  Li  Li3  1  0.79399600  0.50000000  0.49149400  1
  Li  Li4  1  0.84096600  0.50000000  0.85817300  1
  Li  Li5  1  0.86657800  0.50000000  0.15039700  1
  Mn  Mn6  1  0.67416500  0.00000000  0.31400700  1
  Mn  Mn7  1  0.69144900  0.00000000  0.68005200  1
  Fe  Fe8  1  0.13904900  0.00000000  0.50371900  1
  Fe  Fe9  1  0.17612300  0.00000000  0.81515400  1
  Fe  Fe10  1  0.18880000  0.00000000  0.18012700  1
  Fe  Fe11  1  0.63573600  0.00000000  0.00407300  1
  B  B12  1  0.00235700  0.50000000  0.66674900  1
  B  B13  1  0.99962100  0.00000000  0.00010300  1
  B  B14  1  0.00222000  0.50000000  0.33310400  1
  B  B15  1  0.49774000  0.50000000  0.16540000  1
  B  B16  1  0.49893600  0.00000000  0.50061100  1
  B  B17  1  0.49884200  0.50000000  0.83478600  1
  O  O18  1  0.01362900  0.50000000  0.43033600  1
  O  O19  1  0.01891900  0.50000000  0.76378700  1
  O  O20  1  0.13825700  0.50000000  0.60917500  1
  O  O21  1  0.14168200  0.50000000  0.27862200  1
  O  O22  1  0.15111100  0.00000000  0.95742700  1
  O  O23  1  0.34374800  0.50000000  0.12587400  1
  O  O24  1  0.34754200  0.50000000  0.79155800  1
  O  O25  1  0.36179300  0.00000000  0.44376900  1
  O  O26  1  0.48159200  0.00000000  0.59743300  1
  O  O27  1  0.51010600  0.50000000  0.93194200  1
  O  O28  1  0.51413000  0.50000000  0.26262000  1
  O  O29  1  0.63549900  0.50000000  0.10901500  1
  O  O30  1  0.63859900  0.50000000  0.78091200  1
  O  O31  1  0.65292400  0.00000000  0.46054500  1
  O  O32  1  0.84872700  0.50000000  0.62636800  1
  O  O33  1  0.85137600  0.50000000  0.29026000  1
  O  O34  1  0.85974300  0.00000000  0.94546000  1
  O  O35  1  0.98754100  0.00000000  0.09732700  1
