# generated using pymatgen
data_Co6O5F7
_symmetry_space_group_name_H-M   'P 1'
_cell_length_a   9.01085600
_cell_length_b   6.57940800
_cell_length_c   7.18056203
_cell_angle_alpha   90.00000000
_cell_angle_beta   112.52445164
_cell_angle_gamma   90.00000000
_symmetry_Int_Tables_number   1
_chemical_formula_structural   Co6O5F7
_chemical_formula_sum   'Co12 O10 F14'
_cell_volume   393.23289045
_cell_formula_units_Z   2
loop_
 _symmetry_equiv_pos_site_id
 _symmetry_equiv_pos_as_xyz
  1  'x, y, z'
loop_
 _atom_site_type_symbol
 _atom_site_label
 _atom_site_symmetry_multiplicity
 _atom_site_fract_x
 _atom_site_fract_y
 _atom_site_fract_z
 _atom_site_occupancy
  Co  Co0  1  0.19965300  0.50000000  0.17978800  1
  Co  Co1  1  0.14762100  0.50000000  0.69148000  1
  Co  Co2  1  0.83635800  0.50000000  0.32898900  1
  Co  Co3  1  0.82801100  0.50000000  0.83911100  1
  Co  Co4  1  0.47776700  0.50000000  0.48075300  1
  Co  Co5  1  0.50622200  0.50000000  0.00000600  1
  Co  Co6  1  0.69965300  0.00000000  0.17978800  1
  Co  Co7  1  0.64762100  0.00000000  0.69148000  1
  Co  Co8  1  0.33635800  0.00000000  0.32898900  1
  Co  Co9  1  0.32801100  0.00000000  0.83911100  1
  Co  Co10  1  0.97776700  0.00000000  0.48075300  1
  Co  Co11  1  0.00622200  0.00000000  0.00000600  1
  O  O12  1  0.83357200  0.21400700  0.32689300  1
  O  O13  1  0.72924800  0.50000000  0.04187100  1
  O  O14  1  0.92269400  0.50000000  0.61672300  1
  O  O15  1  0.28684300  0.50000000  0.96827400  1
  O  O16  1  0.83357200  0.78599300  0.32689300  1
  O  O17  1  0.33357200  0.71400700  0.32689300  1
  O  O18  1  0.22924800  0.00000000  0.04187100  1
  O  O19  1  0.42269400  0.00000000  0.61672300  1
  O  O20  1  0.78684300  0.00000000  0.96827400  1
  O  O21  1  0.33357200  0.28599300  0.32689300  1
  F  F22  1  0.15493600  0.19626500  0.66120500  1
  F  F23  1  0.07479700  0.50000000  0.37080400  1
  F  F24  1  0.39380400  0.50000000  0.69937500  1
  F  F25  1  0.59637400  0.50000000  0.29703800  1
  F  F26  1  0.15493600  0.80373500  0.66120500  1
  F  F27  1  0.01179550  0.30604450  0.00479500  1
  F  F28  1  0.01179550  0.69395550  0.00479500  1
  F  F29  1  0.65493600  0.69626500  0.66120500  1
  F  F30  1  0.57479700  0.00000000  0.37080400  1
  F  F31  1  0.89380400  0.00000000  0.69937500  1
  F  F32  1  0.09637400  0.00000000  0.29703800  1
  F  F33  1  0.65493600  0.30373500  0.66120500  1
  F  F34  1  0.51179550  0.80604450  0.00479500  1
  F  F35  1  0.51179550  0.19395550  0.00479500  1
