# generated using pymatgen
data_NiHgO2
_symmetry_space_group_name_H-M   'P 1'
_cell_length_a   3.20959200
_cell_length_b   3.20959200
_cell_length_c   18.20093221
_cell_angle_alpha   90.00000000
_cell_angle_beta   90.00000000
_cell_angle_gamma   120.00000000
_symmetry_Int_Tables_number   1
_chemical_formula_structural   NiHgO2
_chemical_formula_sum   'Ni3 Hg3 O6'
_cell_volume   162.37677908
_cell_formula_units_Z   3
loop_
 _symmetry_equiv_pos_site_id
 _symmetry_equiv_pos_as_xyz
  1  'x, y, z'
loop_
 _atom_site_type_symbol
 _atom_site_label
 _atom_site_symmetry_multiplicity
 _atom_site_fract_x
 _atom_site_fract_y
 _atom_site_fract_z
 _atom_site_occupancy
  Ni  Ni0  1  0.33333333  0.66666667  0.16666667  1
  Ni  Ni1  1  1.00000000  1.00000000  0.50000000  1
  Ni  Ni2  1  0.66666667  0.33333333  0.83333333  1
  Hg  Hg3  1  0.00000000  0.00000000  0.00000000  1
  Hg  Hg4  1  0.66666667  0.33333333  0.33333333  1
  Hg  Hg5  1  0.33333333  0.66666667  0.66666667  1
  O  O6  1  0.00000000  0.00000000  0.11114167  1
  O  O7  1  0.66666667  0.33333333  0.22219167  1
  O  O8  1  0.66666667  0.33333333  0.44447500  1
  O  O9  1  0.33333333  0.66666667  0.55552500  1
  O  O10  1  0.33333333  0.66666667  0.77780833  1
  O  O11  1  0.00000000  0.00000000  0.88885833  1
