# generated using pymatgen
data_VFe3Cu2(PO4)6
_symmetry_space_group_name_H-M   'P 1'
_cell_length_a   8.60394586
_cell_length_b   8.60394586
_cell_length_c   20.90299339
_cell_angle_alpha   90.00000000
_cell_angle_beta   90.00000000
_cell_angle_gamma   120.00000000
_symmetry_Int_Tables_number   1
_chemical_formula_structural   VFe3Cu2(PO4)6
_chemical_formula_sum   'V3 Fe9 Cu6 P18 O72'
_cell_volume   1340.09150004
_cell_formula_units_Z   3
loop_
 _symmetry_equiv_pos_site_id
 _symmetry_equiv_pos_as_xyz
  1  'x, y, z'
loop_
 _atom_site_type_symbol
 _atom_site_label
 _atom_site_symmetry_multiplicity
 _atom_site_fract_x
 _atom_site_fract_y
 _atom_site_fract_z
 _atom_site_occupancy
  V  V0  1  0.33333333  0.66666667  0.81008867  1
  V  V1  1  0.00000000  0.00000000  0.14342200  1
  V  V2  1  0.66666667  0.33333333  0.47675533  1
  Fe  Fe3  1  0.33333333  0.66666667  0.31063367  1
  Fe  Fe4  1  0.33333333  0.66666667  0.52221367  1
  Fe  Fe5  1  0.33333333  0.66666667  0.02300467  1
  Fe  Fe6  1  0.00000000  0.00000000  0.64396700  1
  Fe  Fe7  1  0.00000000  0.00000000  0.85554700  1
  Fe  Fe8  1  0.00000000  0.00000000  0.35633800  1
  Fe  Fe9  1  0.66666667  0.33333333  0.97730033  1
  Fe  Fe10  1  0.66666667  0.33333333  0.18888033  1
  Fe  Fe11  1  0.66666667  0.33333333  0.68967133  1
  Cu  Cu12  1  0.33333333  0.66666667  0.66428567  1
  Cu  Cu13  1  0.33333333  0.66666667  0.16551367  1
  Cu  Cu14  1  0.00000000  0.00000000  0.99761900  1
  Cu  Cu15  1  0.00000000  0.00000000  0.49884700  1
  Cu  Cu16  1  0.66666667  0.33333333  0.33095233  1
  Cu  Cu17  1  0.66666667  0.33333333  0.83218033  1
  P  P18  1  0.70641300  0.70726300  0.25027800  1
  P  P19  1  0.29273700  0.99915000  0.25027800  1
  P  P20  1  0.00085000  0.29358700  0.25027800  1
  P  P21  1  0.66617833  0.03925767  0.08441067  1
  P  P22  1  0.37307933  0.33382167  0.08441067  1
  P  P23  1  0.96074233  0.62692067  0.08441067  1
  P  P24  1  0.37307967  0.04059633  0.58361133  1
  P  P25  1  0.95940367  0.33248333  0.58361133  1
  P  P26  1  0.66751667  0.62692033  0.58361133  1
  P  P27  1  0.33284500  0.37259100  0.41774400  1
  P  P28  1  0.03974600  0.66715500  0.41774400  1
  P  P29  1  0.62740900  0.96025400  0.41774400  1
  P  P30  1  0.03974633  0.37392967  0.91694467  1
  P  P31  1  0.62607033  0.66581667  0.91694467  1
  P  P32  1  0.33418333  0.96025367  0.91694467  1
  P  P33  1  0.99951167  0.70592433  0.75107733  1
  P  P34  1  0.70641267  0.00048833  0.75107733  1
  P  P35  1  0.29407567  0.29358733  0.75107733  1
  O  O36  1  0.52626167  0.66303133  0.97664333  1
  O  O37  1  0.33696867  0.86323033  0.97664333  1
  O  O38  1  0.13676967  0.47373833  0.97664333  1
  O  O39  1  0.68870967  0.52040133  0.25420533  1
  O  O40  1  0.15277300  0.48357800  0.85661300  1
  O  O41  1  0.52169633  0.69421467  0.24074267  1
  O  O42  1  0.47959867  0.16830833  0.25420533  1
  O  O43  1  0.30578533  0.82748167  0.24074267  1
  O  O44  1  0.66853900  0.13775400  0.14467800  1
  O  O45  1  0.17251833  0.47830367  0.24074267  1
  O  O46  1  0.83851933  0.01706767  0.08140467  1
  O  O47  1  0.46921500  0.33146100  0.14467800  1
  O  O48  1  0.51642200  0.66919500  0.85661300  1
  O  O49  1  0.83169167  0.31129033  0.25420533  1
  O  O50  1  0.50022267  0.84802333  0.08960233  1
  O  O51  1  0.33080500  0.84722700  0.85661300  1
  O  O52  1  0.34780067  0.49977733  0.08960233  1
  O  O53  1  0.17854833  0.16148067  0.08140467  1
  O  O54  1  0.15197667  0.65219933  0.08960233  1
  O  O55  1  0.86224600  0.53078500  0.14467800  1
  O  O56  1  0.98293233  0.82145167  0.08140467  1
  O  O57  1  0.52868300  0.86922800  0.35618000  1
  O  O58  1  0.34054500  0.47131700  0.35618000  1
  O  O59  1  0.13077200  0.65945500  0.35618000  1
  O  O60  1  0.19292833  0.99636467  0.30997667  1
  O  O61  1  0.00363533  0.19656367  0.30997667  1
  O  O62  1  0.80343633  0.80707167  0.30997667  1
  O  O63  1  0.35537633  0.85373467  0.58753867  1
  O  O64  1  0.81943967  0.81691133  0.18994633  1
  O  O65  1  0.18836300  0.02754800  0.57407600  1
  O  O66  1  0.14626533  0.50164167  0.58753867  1
  O  O67  1  0.97245200  0.16081500  0.57407600  1
  O  O68  1  0.33520567  0.47108733  0.47801133  1
  O  O69  1  0.83918500  0.81163700  0.57407600  1
  O  O70  1  0.50518600  0.35040100  0.41473800  1
  O  O71  1  0.13588167  0.66479433  0.47801133  1
  O  O72  1  0.18308867  0.00252833  0.18994633  1
  O  O73  1  0.49835833  0.64462367  0.58753867  1
  O  O74  1  0.16688933  0.18135667  0.42293567  1
  O  O75  1  0.99747167  0.18056033  0.18994633  1
  O  O76  1  0.01446733  0.83311067  0.42293567  1
  O  O77  1  0.84521500  0.49481400  0.41473800  1
  O  O78  1  0.81864333  0.98553267  0.42293567  1
  O  O79  1  0.52891267  0.86411833  0.47801133  1
  O  O80  1  0.64959900  0.15478500  0.41473800  1
  O  O81  1  0.19534967  0.20256133  0.68951333  1
  O  O82  1  0.00721167  0.80465033  0.68951333  1
  O  O83  1  0.79743867  0.99278833  0.68951333  1
  O  O84  1  0.85959500  0.32969800  0.64331000  1
  O  O85  1  0.67030200  0.52989700  0.64331000  1
  O  O86  1  0.47010300  0.14040500  0.64331000  1
  O  O87  1  0.02204300  0.18706800  0.92087200  1
  O  O88  1  0.48610633  0.15024467  0.52327967  1
  O  O89  1  0.85502967  0.36088133  0.90740933  1
  O  O90  1  0.81293200  0.83497500  0.92087200  1
  O  O91  1  0.63911867  0.49414833  0.90740933  1
  O  O92  1  0.00187233  0.80442067  0.81134467  1
  O  O93  1  0.50585167  0.14497033  0.90740933  1
  O  O94  1  0.17185267  0.68373433  0.74807133  1
  O  O95  1  0.80254833  0.99812767  0.81134467  1
  O  O96  1  0.84975533  0.33586167  0.52327967  1
  O  O97  1  0.16502500  0.97795700  0.92087200  1
  O  O98  1  0.83355600  0.51469000  0.75626900  1
  O  O99  1  0.66413833  0.51389367  0.52327967  1
  O  O100  1  0.68113400  0.16644400  0.75626900  1
  O  O101  1  0.51188167  0.82814733  0.74807133  1
  O  O102  1  0.48531000  0.31886600  0.75626900  1
  O  O103  1  0.19557933  0.19745167  0.81134467  1
  O  O104  1  0.31626567  0.48811833  0.74807133  1
  O  O105  1  0.86201633  0.53589467  0.02284667  1
  O  O106  1  0.67387833  0.13798367  0.02284667  1
  O  O107  1  0.46410533  0.32612167  0.02284667  1
