# generated using pymatgen
data_Li4Co3Sn3(SbO8)2
_symmetry_space_group_name_H-M   'P 1'
_cell_length_a   10.72267400
_cell_length_b   6.17777800
_cell_length_c   9.86566328
_cell_angle_alpha   90.00000000
_cell_angle_beta   90.55645768
_cell_angle_gamma   90.00000000
_symmetry_Int_Tables_number   1
_chemical_formula_structural   Li4Co3Sn3(SbO8)2
_chemical_formula_sum   'Li8 Co6 Sn6 Sb4 O32'
_cell_volume   653.49340092
_cell_formula_units_Z   2
loop_
 _symmetry_equiv_pos_site_id
 _symmetry_equiv_pos_as_xyz
  1  'x, y, z'
loop_
 _atom_site_type_symbol
 _atom_site_label
 _atom_site_symmetry_multiplicity
 _atom_site_fract_x
 _atom_site_fract_y
 _atom_site_fract_z
 _atom_site_occupancy
  Li  Li0  1  0.66671800  0.00000000  0.89717800  1
  Li  Li1  1  0.98268500  0.00000000  0.97843700  1
  Li  Li2  1  0.99025700  0.00000000  0.49831200  1
  Li  Li3  1  0.83136000  0.50000000  0.41105200  1
  Li  Li4  1  0.16671800  0.50000000  0.89717800  1
  Li  Li5  1  0.48268500  0.50000000  0.97843700  1
  Li  Li6  1  0.49025700  0.50000000  0.49831200  1
  Li  Li7  1  0.33136000  0.00000000  0.41105200  1
  Co  Co8  1  0.82944300  0.00000000  0.21365300  1
  Co  Co9  1  0.91731950  0.74127350  0.71200800  1
  Co  Co10  1  0.91731950  0.25872650  0.71200800  1
  Co  Co11  1  0.32944300  0.50000000  0.21365300  1
  Co  Co12  1  0.41731950  0.24127350  0.71200800  1
  Co  Co13  1  0.41731950  0.75872650  0.71200800  1
  Sn  Sn14  1  0.58582200  0.24628100  0.21340700  1
  Sn  Sn15  1  0.58582200  0.75371900  0.21340700  1
  Sn  Sn16  1  0.67142900  0.50000000  0.71279300  1
  Sn  Sn17  1  0.08582200  0.74628100  0.21340700  1
  Sn  Sn18  1  0.08582200  0.25371900  0.21340700  1
  Sn  Sn19  1  0.17142900  0.00000000  0.71279300  1
  Sb  Sb20  1  0.67354000  0.00000000  0.49309900  1
  Sb  Sb21  1  0.84216700  0.50000000  0.97868400  1
  Sb  Sb22  1  0.17354000  0.50000000  0.49309900  1
  Sb  Sb23  1  0.34216700  0.00000000  0.97868400  1
  O  O24  1  0.58773500  0.24581900  0.58810200  1
  O  O25  1  0.51846700  0.00000000  0.34684500  1
  O  O26  1  0.66371000  0.00000000  0.10303900  1
  O  O27  1  0.50087100  0.50000000  0.30801600  1
  O  O28  1  0.50274100  0.50000000  0.79604100  1
  O  O29  1  0.58773500  0.75418100  0.58810200  1
  O  O30  1  0.73805250  0.22169450  0.34737800  1
  O  O31  1  0.73805250  0.77830550  0.34737800  1
  O  O32  1  0.66788900  0.50000000  0.09577500  1
  O  O33  1  0.83286700  0.00000000  0.59063100  1
  O  O34  1  0.75794050  0.71970050  0.85622800  1
  O  O35  1  0.75794050  0.28029950  0.85622800  1
  O  O36  1  0.83105500  0.50000000  0.60815800  1
  O  O37  1  0.91796900  0.74741100  0.09480800  1
  O  O38  1  0.98455000  0.50000000  0.85224600  1
  O  O39  1  0.91796900  0.25258900  0.09480800  1
  O  O40  1  0.08773500  0.74581900  0.58810200  1
  O  O41  1  0.01846700  0.50000000  0.34684500  1
  O  O42  1  0.16371000  0.50000000  0.10303900  1
  O  O43  1  0.00087100  0.00000000  0.30801600  1
  O  O44  1  0.00274100  0.00000000  0.79604100  1
  O  O45  1  0.08773500  0.25418100  0.58810200  1
  O  O46  1  0.23805250  0.72169450  0.34737800  1
  O  O47  1  0.23805250  0.27830550  0.34737800  1
  O  O48  1  0.16788900  0.00000000  0.09577500  1
  O  O49  1  0.33286700  0.50000000  0.59063100  1
  O  O50  1  0.25794050  0.21970050  0.85622800  1
  O  O51  1  0.25794050  0.78029950  0.85622800  1
  O  O52  1  0.33105500  0.00000000  0.60815800  1
  O  O53  1  0.41796900  0.24741100  0.09480800  1
  O  O54  1  0.48455000  0.00000000  0.85224600  1
  O  O55  1  0.41796900  0.75258900  0.09480800  1
