# generated using pymatgen
data_Mn2CrO6
_symmetry_space_group_name_H-M   'P 1'
_cell_length_a   12.67997600
_cell_length_b   2.91012000
_cell_length_c   5.79852736
_cell_angle_alpha   90.00000000
_cell_angle_beta   102.03372583
_cell_angle_gamma   90.00000000
_symmetry_Int_Tables_number   1
_chemical_formula_structural   Mn2CrO6
_chemical_formula_sum   'Mn4 Cr2 O12'
_cell_volume   209.26520224
_cell_formula_units_Z   2
loop_
 _symmetry_equiv_pos_site_id
 _symmetry_equiv_pos_as_xyz
  1  'x, y, z'
loop_
 _atom_site_type_symbol
 _atom_site_label
 _atom_site_symmetry_multiplicity
 _atom_site_fract_x
 _atom_site_fract_y
 _atom_site_fract_z
 _atom_site_occupancy
  Mn  Mn0  1  0.83255200  0.50000000  0.16615900  1
  Mn  Mn1  1  0.66744800  0.00000000  0.83384100  1
  Mn  Mn2  1  0.33255200  0.00000000  0.16615900  1
  Mn  Mn3  1  0.16744800  0.50000000  0.83384100  1
  Cr  Cr4  1  0.00000000  0.00000000  0.50000000  1
  Cr  Cr5  1  0.50000000  0.50000000  0.50000000  1
  O  O6  1  0.84219900  0.00000000  0.38918600  1
  O  O7  1  0.67696800  0.50000000  0.05896400  1
  O  O8  1  0.65780100  0.50000000  0.61081400  1
  O  O9  1  0.51095500  0.00000000  0.72511000  1
  O  O10  1  0.98904500  0.50000000  0.27489000  1
  O  O11  1  0.82303200  0.00000000  0.94103600  1
  O  O12  1  0.34219900  0.50000000  0.38918600  1
  O  O13  1  0.17696800  0.00000000  0.05896400  1
  O  O14  1  0.15780100  0.00000000  0.61081400  1
  O  O15  1  0.01095500  0.50000000  0.72511000  1
  O  O16  1  0.48904500  0.00000000  0.27489000  1
  O  O17  1  0.32303200  0.50000000  0.94103600  1
