# generated using pymatgen
data_Co2OF3
_symmetry_space_group_name_H-M   'P 1'
_cell_length_a   6.47850600
_cell_length_b   6.79664400
_cell_length_c   9.52522800
_cell_angle_alpha   90.00000000
_cell_angle_beta   90.00000000
_cell_angle_gamma   90.00000000
_symmetry_Int_Tables_number   1
_chemical_formula_structural   Co2OF3
_chemical_formula_sum   'Co12 O6 F18'
_cell_volume   419.41578166
_cell_formula_units_Z   6
loop_
 _symmetry_equiv_pos_site_id
 _symmetry_equiv_pos_as_xyz
  1  'x, y, z'
loop_
 _atom_site_type_symbol
 _atom_site_label
 _atom_site_symmetry_multiplicity
 _atom_site_fract_x
 _atom_site_fract_y
 _atom_site_fract_z
 _atom_site_occupancy
  Co  Co0  1  0.96433200  0.00000000  0.00000000  1
  Co  Co1  1  0.02696300  0.00000000  0.33139500  1
  Co  Co2  1  0.02696300  0.00000000  0.66860500  1
  Co  Co3  1  0.49763300  0.00000000  0.16521200  1
  Co  Co4  1  0.49763300  0.00000000  0.83478800  1
  Co  Co5  1  0.48598100  0.00000000  0.50000000  1
  Co  Co6  1  0.46433200  0.50000000  0.00000000  1
  Co  Co7  1  0.52696300  0.50000000  0.33139500  1
  Co  Co8  1  0.52696300  0.50000000  0.66860500  1
  Co  Co9  1  0.99763300  0.50000000  0.16521200  1
  Co  Co10  1  0.99763300  0.50000000  0.83478800  1
  Co  Co11  1  0.98598100  0.50000000  0.50000000  1
  O  O12  1  0.30389700  0.00000000  0.33131200  1
  O  O13  1  0.30389700  0.00000000  0.66868800  1
  O  O14  1  0.68893500  0.00000000  0.00000000  1
  O  O15  1  0.80389700  0.50000000  0.33131200  1
  O  O16  1  0.80389700  0.50000000  0.66868800  1
  O  O17  1  0.18893500  0.50000000  0.00000000  1
  F  F18  1  0.49587900  0.30631800  0.16599500  1
  F  F19  1  0.49587900  0.30631800  0.83400500  1
  F  F20  1  0.50638800  0.30442900  0.50000000  1
  F  F21  1  0.27603500  0.00000000  0.00000000  1
  F  F22  1  0.71571800  0.00000000  0.66443100  1
  F  F23  1  0.71571800  0.00000000  0.33556900  1
  F  F24  1  0.49587900  0.69368200  0.16599500  1
  F  F25  1  0.49587900  0.69368200  0.83400500  1
  F  F26  1  0.50638800  0.69557100  0.50000000  1
  F  F27  1  0.99587900  0.80631800  0.16599500  1
  F  F28  1  0.99587900  0.80631800  0.83400500  1
  F  F29  1  0.00638800  0.80442900  0.50000000  1
  F  F30  1  0.77603500  0.50000000  0.00000000  1
  F  F31  1  0.21571800  0.50000000  0.66443100  1
  F  F32  1  0.21571800  0.50000000  0.33556900  1
  F  F33  1  0.99587900  0.19368200  0.16599500  1
  F  F34  1  0.99587900  0.19368200  0.83400500  1
  F  F35  1  0.00638800  0.19557100  0.50000000  1
