# generated using pymatgen
data_Ti3Fe(PO4)6
_symmetry_space_group_name_H-M   'P 1'
_cell_length_a   8.67448566
_cell_length_b   8.67448566
_cell_length_c   22.04362225
_cell_angle_alpha   90.00000000
_cell_angle_beta   90.00000000
_cell_angle_gamma   120.00000000
_symmetry_Int_Tables_number   1
_chemical_formula_structural   Ti3Fe(PO4)6
_chemical_formula_sum   'Ti9 Fe3 P18 O72'
_cell_volume   1436.48487934
_cell_formula_units_Z   3
loop_
 _symmetry_equiv_pos_site_id
 _symmetry_equiv_pos_as_xyz
  1  'x, y, z'
loop_
 _atom_site_type_symbol
 _atom_site_label
 _atom_site_symmetry_multiplicity
 _atom_site_fract_x
 _atom_site_fract_y
 _atom_site_fract_z
 _atom_site_occupancy
  Ti  Ti0  1  0.66666667  0.33333333  0.19396133  1
  Ti  Ti1  1  0.33333333  0.66666667  0.30728767  1
  Ti  Ti2  1  0.33333333  0.66666667  0.02607267  1
  Ti  Ti3  1  0.33333333  0.66666667  0.52729467  1
  Ti  Ti4  1  0.00000000  0.00000000  0.64062100  1
  Ti  Ti5  1  0.00000000  0.00000000  0.35940600  1
  Ti  Ti6  1  0.00000000  0.00000000  0.86062800  1
  Ti  Ti7  1  0.66666667  0.33333333  0.97395433  1
  Ti  Ti8  1  0.66666667  0.33333333  0.69273933  1
  Fe  Fe9  1  0.00000000  0.00000000  0.14317000  1
  Fe  Fe10  1  0.66666667  0.33333333  0.47650333  1
  Fe  Fe11  1  0.33333333  0.66666667  0.80983667  1
  P  P12  1  0.27997133  0.99818267  0.24977267  1
  P  P13  1  0.00181733  0.28178867  0.24977267  1
  P  P14  1  0.71821133  0.72002867  0.24977267  1
  P  P15  1  0.94790000  0.61898600  0.08350400  1
  P  P16  1  0.67108600  0.05210000  0.08350400  1
  P  P17  1  0.38101400  0.32891400  0.08350400  1
  P  P18  1  0.94663800  0.33151600  0.58310600  1
  P  P19  1  0.66848400  0.61512200  0.58310600  1
  P  P20  1  0.38487800  0.05336200  0.58310600  1
  P  P21  1  0.61456667  0.95231933  0.41683733  1
  P  P22  1  0.33775267  0.38543333  0.41683733  1
  P  P23  1  0.04768067  0.66224733  0.41683733  1
  P  P24  1  0.61330467  0.66484933  0.91643933  1
  P  P25  1  0.33515067  0.94845533  0.91643933  1
  P  P26  1  0.05154467  0.38669533  0.91643933  1
  P  P27  1  0.28123333  0.28565267  0.75017067  1
  P  P28  1  0.00441933  0.71876667  0.75017067  1
  P  P29  1  0.71434733  0.99558067  0.75017067  1
  O  O30  1  0.47366033  0.30668767  0.02716367  1
  O  O31  1  0.83302733  0.52633967  0.02716367  1
  O  O32  1  0.46629433  0.16492567  0.24125467  1
  O  O33  1  0.69331233  0.16697267  0.02716367  1
  O  O34  1  0.30590300  0.83585800  0.26007100  1
  O  O35  1  0.16551200  0.95860100  0.19324900  1
  O  O36  1  0.83507433  0.30136867  0.24125467  1
  O  O37  1  0.16414200  0.47004500  0.26007100  1
  O  O38  1  0.52995500  0.69409700  0.26007100  1
  O  O39  1  0.86069033  0.50384067  0.14013967  1
  O  O40  1  0.96268900  0.80144700  0.08844600  1
  O  O41  1  0.64315033  0.13930967  0.14013967  1
  O  O42  1  0.04139900  0.20691100  0.19324900  1
  O  O43  1  0.69863133  0.53370567  0.24125467  1
  O  O44  1  0.79308900  0.83448800  0.19324900  1
  O  O45  1  0.13478700  0.64046400  0.07515300  1
  O  O46  1  0.50567700  0.86521300  0.07515300  1
  O  O47  1  0.83875800  0.03731100  0.08844600  1
  O  O48  1  0.49615933  0.35684967  0.14013967  1
  O  O49  1  0.35953600  0.49432300  0.07515300  1
  O  O50  1  0.97352200  0.16731500  0.30663800  1
  O  O51  1  0.19855300  0.16124200  0.08844600  1
  O  O52  1  0.83268500  0.80620700  0.30663800  1
  O  O53  1  0.19379300  0.02647800  0.30663800  1
  O  O54  1  0.14032700  0.64002100  0.36049700  1
  O  O55  1  0.49969400  0.85967300  0.36049700  1
  O  O56  1  0.13296100  0.49825900  0.57458800  1
  O  O57  1  0.35997900  0.50030600  0.36049700  1
  O  O58  1  0.97256967  0.16919133  0.59340433  1
  O  O59  1  0.83217867  0.29193433  0.52658233  1
  O  O60  1  0.50174100  0.63470200  0.57458800  1
  O  O61  1  0.83080867  0.80337833  0.59340433  1
  O  O62  1  0.19662167  0.02743033  0.59340433  1
  O  O63  1  0.52735700  0.83717400  0.47347300  1
  O  O64  1  0.62935567  0.13478033  0.42177933  1
  O  O65  1  0.30981700  0.47264300  0.47347300  1
  O  O66  1  0.70806567  0.54024433  0.52658233  1
  O  O67  1  0.36529800  0.86703900  0.57458800  1
  O  O68  1  0.45975567  0.16782133  0.52658233  1
  O  O69  1  0.80145367  0.97379733  0.40848633  1
  O  O70  1  0.17234367  0.19854633  0.40848633  1
  O  O71  1  0.50542467  0.37064433  0.42177933  1
  O  O72  1  0.16282600  0.69018300  0.47347300  1
  O  O73  1  0.02620267  0.82765633  0.40848633  1
  O  O74  1  0.64018867  0.50064833  0.63997133  1
  O  O75  1  0.86521967  0.49457533  0.42177933  1
  O  O76  1  0.49935167  0.13954033  0.63997133  1
  O  O77  1  0.86045967  0.35981133  0.63997133  1
  O  O78  1  0.80699367  0.97335433  0.69383033  1
  O  O79  1  0.16636067  0.19300633  0.69383033  1
  O  O80  1  0.79962767  0.83159233  0.90792133  1
  O  O81  1  0.02664567  0.83363933  0.69383033  1
  O  O82  1  0.63923633  0.50252467  0.92673767  1
  O  O83  1  0.49884533  0.62526767  0.85991567  1
  O  O84  1  0.16840767  0.96803533  0.90792133  1
  O  O85  1  0.49747533  0.13671167  0.92673767  1
  O  O86  1  0.86328833  0.36076367  0.92673767  1
  O  O87  1  0.19402367  0.17050733  0.80680633  1
  O  O88  1  0.29602233  0.46811367  0.75511267  1
  O  O89  1  0.97648367  0.80597633  0.80680633  1
  O  O90  1  0.37473233  0.87357767  0.85991567  1
  O  O91  1  0.03196467  0.20037233  0.90792133  1
  O  O92  1  0.12642233  0.50115467  0.85991567  1
  O  O93  1  0.46812033  0.30713067  0.74181967  1
  O  O94  1  0.83901033  0.53187967  0.74181967  1
  O  O95  1  0.17209133  0.70397767  0.75511267  1
  O  O96  1  0.82949267  0.02351633  0.80680633  1
  O  O97  1  0.69286933  0.16098967  0.74181967  1
  O  O98  1  0.30685533  0.83398167  0.97330467  1
  O  O99  1  0.53188633  0.82790867  0.75511267  1
  O  O100  1  0.16601833  0.47287367  0.97330467  1
  O  O101  1  0.52712633  0.69314467  0.97330467  1
