# generated using pymatgen
data_Li2Ti3Co(PO4)6
_symmetry_space_group_name_H-M   'P 1'
_cell_length_a   8.56227420
_cell_length_b   8.56227420
_cell_length_c   21.28509101
_cell_angle_alpha   90.00000000
_cell_angle_beta   90.00000000
_cell_angle_gamma   120.00000000
_symmetry_Int_Tables_number   1
_chemical_formula_structural   Li2Ti3Co(PO4)6
_chemical_formula_sum   'Li6 Ti9 Co3 P18 O72'
_cell_volume   1351.40152956
_cell_formula_units_Z   3
loop_
 _symmetry_equiv_pos_site_id
 _symmetry_equiv_pos_as_xyz
  1  'x, y, z'
loop_
 _atom_site_type_symbol
 _atom_site_label
 _atom_site_symmetry_multiplicity
 _atom_site_fract_x
 _atom_site_fract_y
 _atom_site_fract_z
 _atom_site_occupancy
  Li  Li0  1  0.66666667  0.33333333  0.32316433  1
  Li  Li1  1  0.33333333  0.66666667  0.16656167  1
  Li  Li2  1  0.33333333  0.66666667  0.65649767  1
  Li  Li3  1  0.00000000  0.00000000  0.49989500  1
  Li  Li4  1  0.00000000  0.00000000  0.98983100  1
  Li  Li5  1  0.66666667  0.33333333  0.83322833  1
  Ti  Ti6  1  0.33333333  0.66666667  0.02298267  1
  Ti  Ti7  1  0.00000000  0.00000000  0.14123900  1
  Ti  Ti8  1  0.33333333  0.66666667  0.30938267  1
  Ti  Ti9  1  0.00000000  0.00000000  0.35631600  1
  Ti  Ti10  1  0.66666667  0.33333333  0.47457233  1
  Ti  Ti11  1  0.00000000  0.00000000  0.64271600  1
  Ti  Ti12  1  0.66666667  0.33333333  0.68964933  1
  Ti  Ti13  1  0.33333333  0.66666667  0.80790567  1
  Ti  Ti14  1  0.66666667  0.33333333  0.97604933  1
  Co  Co15  1  0.66666667  0.33333333  0.19068733  1
  Co  Co16  1  0.33333333  0.66666667  0.52402067  1
  Co  Co17  1  0.00000000  0.00000000  0.85735400  1
  P  P18  1  0.95233467  0.33650533  0.08549733  1
  P  P19  1  0.38417067  0.04766533  0.08549733  1
  P  P20  1  0.66349467  0.61582933  0.08549733  1
  P  P21  1  0.99337767  0.70376533  0.24858733  1
  P  P22  1  0.29623467  0.28961233  0.24858733  1
  P  P23  1  0.71038767  0.00662233  0.24858733  1
  P  P24  1  0.61900133  0.66983867  0.41883067  1
  P  P25  1  0.05083733  0.38099867  0.41883067  1
  P  P26  1  0.33016133  0.94916267  0.41883067  1
  P  P27  1  0.66004433  0.03709867  0.58192067  1
  P  P28  1  0.96290133  0.62294567  0.58192067  1
  P  P29  1  0.37705433  0.33995567  0.58192067  1
  P  P30  1  0.28566800  0.00317200  0.75216400  1
  P  P31  1  0.71750400  0.71433200  0.75216400  1
  P  P32  1  0.99682800  0.28249600  0.75216400  1
  P  P33  1  0.32671100  0.37043200  0.91525400  1
  P  P34  1  0.62956800  0.95627900  0.91525400  1
  P  P35  1  0.04372100  0.67328900  0.91525400  1
  O  O36  1  0.47655400  0.15379900  0.02518900  1
  O  O37  1  0.67724500  0.52344600  0.02518900  1
  O  O38  1  0.84620100  0.32275500  0.02518900  1
  O  O39  1  0.97190300  0.16623500  0.08483000  1
  O  O40  1  0.14446767  0.50372633  0.08341533  1
  O  O41  1  0.86822700  0.36024600  0.14540500  1
  O  O42  1  0.19433200  0.02809700  0.08483000  1
  O  O43  1  0.35925867  0.85553233  0.08341533  1
  O  O44  1  0.49627367  0.64074133  0.08341533  1
  O  O45  1  0.00842133  0.81524467  0.19013067  1
  O  O46  1  0.82100400  0.51645300  0.25066300  1
  O  O47  1  0.18475533  0.19317667  0.19013067  1
  O  O48  1  0.49201900  0.13177300  0.14540500  1
  O  O49  1  0.83376500  0.80566800  0.08483000  1
  O  O50  1  0.63975400  0.50798100  0.14540500  1
  O  O51  1  0.16335333  0.68414067  0.24908067  1
  O  O52  1  0.31585933  0.47921267  0.24908067  1
  O  O53  1  0.48354700  0.30455100  0.25066300  1
  O  O54  1  0.80682333  0.99157867  0.19013067  1
  O  O55  1  0.52078733  0.83664667  0.24908067  1
  O  O56  1  0.69544900  0.17899600  0.25066300  1
  O  O57  1  0.81919767  0.01689033  0.30808333  1
  O  O58  1  0.98310967  0.80230733  0.30808333  1
  O  O59  1  0.19769267  0.18080233  0.30808333  1
  O  O60  1  0.14322067  0.48713233  0.35852233  1
  O  O61  1  0.34391167  0.85677933  0.35852233  1
  O  O62  1  0.51286767  0.65608833  0.35852233  1
  O  O63  1  0.63856967  0.49956833  0.41816333  1
  O  O64  1  0.81113433  0.83705967  0.41674867  1
  O  O65  1  0.53489367  0.69357933  0.47873833  1
  O  O66  1  0.86099867  0.36143033  0.41816333  1
  O  O67  1  0.02592533  0.18886567  0.41674867  1
  O  O68  1  0.16294033  0.97407467  0.41674867  1
  O  O69  1  0.67508800  0.14857800  0.52346400  1
  O  O70  1  0.48767067  0.84978633  0.58399633  1
  O  O71  1  0.85142200  0.52651000  0.52346400  1
  O  O72  1  0.15868567  0.46510633  0.47873833  1
  O  O73  1  0.50043167  0.13900133  0.41816333  1
  O  O74  1  0.30642067  0.84131433  0.47873833  1
  O  O75  1  0.83002000  0.01747400  0.58241400  1
  O  O76  1  0.98252600  0.81254600  0.58241400  1
  O  O77  1  0.15021367  0.63788433  0.58399633  1
  O  O78  1  0.47349000  0.32491200  0.52346400  1
  O  O79  1  0.18745400  0.16998000  0.58241400  1
  O  O80  1  0.36211567  0.51232933  0.58399633  1
  O  O81  1  0.48586433  0.35022367  0.64141667  1
  O  O82  1  0.64977633  0.13564067  0.64141667  1
  O  O83  1  0.86435933  0.51413567  0.64141667  1
  O  O84  1  0.80988733  0.82046567  0.69185567  1
  O  O85  1  0.01057833  0.19011267  0.69185567  1
  O  O86  1  0.17953433  0.98942167  0.69185567  1
  O  O87  1  0.30523633  0.83290167  0.75149667  1
  O  O88  1  0.47780100  0.17039300  0.75008200  1
  O  O89  1  0.20156033  0.02691267  0.81207167  1
  O  O90  1  0.52766533  0.69476367  0.75149667  1
  O  O91  1  0.69259200  0.52219900  0.75008200  1
  O  O92  1  0.82960700  0.30740800  0.75008200  1
  O  O93  1  0.34175467  0.48191133  0.85679733  1
  O  O94  1  0.15433733  0.18311967  0.91732967  1
  O  O95  1  0.51808867  0.85984333  0.85679733  1
  O  O96  1  0.82535233  0.79843967  0.81207167  1
  O  O97  1  0.16709833  0.47233467  0.75149667  1
  O  O98  1  0.97308733  0.17464767  0.81207167  1
  O  O99  1  0.49668667  0.35080733  0.91574733  1
  O  O100  1  0.64919267  0.14587933  0.91574733  1
  O  O101  1  0.81688033  0.97121767  0.91732967  1
  O  O102  1  0.14015667  0.65824533  0.85679733  1
  O  O103  1  0.85412067  0.50331333  0.91574733  1
  O  O104  1  0.02878233  0.84566267  0.91732967  1
  O  O105  1  0.15253100  0.68355700  0.97475000  1
  O  O106  1  0.31644300  0.46897400  0.97475000  1
  O  O107  1  0.53102600  0.84746900  0.97475000  1
