# generated using pymatgen
data_Li2Fe(SiO3)2
_symmetry_space_group_name_H-M   'P 1'
_cell_length_a   7.34169101
_cell_length_b   7.36533101
_cell_length_c   19.38554701
_cell_angle_alpha   90.00000000
_cell_angle_beta   90.00000000
_cell_angle_gamma   90.00000000
_symmetry_Int_Tables_number   1
_chemical_formula_structural   Li2Fe(SiO3)2
_chemical_formula_sum   'Li16 Fe8 Si16 O48'
_cell_volume   1048.25376805
_cell_formula_units_Z   8
loop_
 _symmetry_equiv_pos_site_id
 _symmetry_equiv_pos_as_xyz
  1  'x, y, z'
loop_
 _atom_site_type_symbol
 _atom_site_label
 _atom_site_symmetry_multiplicity
 _atom_site_fract_x
 _atom_site_fract_y
 _atom_site_fract_z
 _atom_site_occupancy
  Li  Li0  1  0.78221600  0.52849975  0.16595375  1
  Li  Li1  1  0.53221600  0.27849975  0.08404625  1
  Li  Li2  1  0.03221600  0.22150025  0.91595375  1
  Li  Li3  1  0.78221600  0.47150025  0.83404625  1
  Li  Li4  1  0.28221600  0.52849975  0.66595375  1
  Li  Li5  1  0.03221600  0.27849975  0.58404625  1
  Li  Li6  1  0.53221600  0.22150025  0.41595375  1
  Li  Li7  1  0.28221600  0.47150025  0.33404625  1
  Li  Li8  1  0.28221600  0.02849975  0.16595375  1
  Li  Li9  1  0.03221600  0.77849975  0.08404625  1
  Li  Li10  1  0.53221600  0.72150025  0.91595375  1
  Li  Li11  1  0.28221600  0.97150025  0.83404625  1
  Li  Li12  1  0.78221600  0.02849975  0.66595375  1
  Li  Li13  1  0.53221600  0.77849975  0.58404625  1
  Li  Li14  1  0.03221600  0.72150025  0.41595375  1
  Li  Li15  1  0.78221600  0.97150025  0.33404625  1
  Fe  Fe16  1  0.78292100  0.50000000  0.00000000  1
  Fe  Fe17  1  0.53292100  0.25000000  0.25000000  1
  Fe  Fe18  1  0.28292100  0.50000000  0.50000000  1
  Fe  Fe19  1  0.03292100  0.25000000  0.75000000  1
  Fe  Fe20  1  0.28292100  0.00000000  0.00000000  1
  Fe  Fe21  1  0.03292100  0.75000000  0.25000000  1
  Fe  Fe22  1  0.78292100  0.00000000  0.50000000  1
  Fe  Fe23  1  0.53292100  0.75000000  0.75000000  1
  Si  Si24  1  0.21509550  0.44359225  0.16750075  1
  Si  Si25  1  0.96509550  0.19359225  0.08249925  1
  Si  Si26  1  0.46509550  0.30640775  0.91750075  1
  Si  Si27  1  0.71509550  0.05640775  0.83249925  1
  Si  Si28  1  0.71509550  0.44359225  0.66750075  1
  Si  Si29  1  0.46509550  0.19359225  0.58249925  1
  Si  Si30  1  0.96509550  0.30640775  0.41750075  1
  Si  Si31  1  0.21509550  0.05640775  0.33249925  1
  Si  Si32  1  0.71509550  0.94359225  0.16750075  1
  Si  Si33  1  0.46509550  0.69359225  0.08249925  1
  Si  Si34  1  0.96509550  0.80640775  0.91750075  1
  Si  Si35  1  0.21509550  0.55640775  0.83249925  1
  Si  Si36  1  0.21509550  0.94359225  0.66750075  1
  Si  Si37  1  0.96509550  0.69359225  0.58249925  1
  Si  Si38  1  0.46509550  0.80640775  0.41750075  1
  Si  Si39  1  0.71509550  0.55640775  0.33249925  1
  O  O40  1  0.18297150  0.52411750  0.24411050  1
  O  O41  1  0.93297150  0.27411750  0.00588950  1
  O  O42  1  0.43297150  0.22588250  0.99411050  1
  O  O43  1  0.68297150  0.97588250  0.75588950  1
  O  O44  1  0.36913200  0.28417775  0.16502025  1
  O  O45  1  0.61913200  0.53417775  0.08497975  1
  O  O46  1  0.61913200  0.46582225  0.91502025  1
  O  O47  1  0.86913200  0.21582225  0.83497975  1
  O  O48  1  0.76707750  0.11619100  0.11397900  1
  O  O49  1  0.01707750  0.36619100  0.13602100  1
  O  O50  1  0.51707750  0.13380900  0.86397900  1
  O  O51  1  0.76707750  0.88380900  0.88602100  1
  O  O52  1  0.68297150  0.52411750  0.74411050  1
  O  O53  1  0.43297150  0.27411750  0.50588950  1
  O  O54  1  0.93297150  0.22588250  0.49411050  1
  O  O55  1  0.18297150  0.97588250  0.25588950  1
  O  O56  1  0.86913200  0.28417775  0.66502025  1
  O  O57  1  0.11913200  0.53417775  0.58497975  1
  O  O58  1  0.11913200  0.46582225  0.41502025  1
  O  O59  1  0.36913200  0.21582225  0.33497975  1
  O  O60  1  0.26707750  0.11619100  0.61397900  1
  O  O61  1  0.51707750  0.36619100  0.63602100  1
  O  O62  1  0.01707750  0.13380900  0.36397900  1
  O  O63  1  0.26707750  0.88380900  0.38602100  1
  O  O64  1  0.68297150  0.02411750  0.24411050  1
  O  O65  1  0.43297150  0.77411750  0.00588950  1
  O  O66  1  0.93297150  0.72588250  0.99411050  1
  O  O67  1  0.18297150  0.47588250  0.75588950  1
  O  O68  1  0.86913200  0.78417775  0.16502025  1
  O  O69  1  0.11913200  0.03417775  0.08497975  1
  O  O70  1  0.11913200  0.96582225  0.91502025  1
  O  O71  1  0.36913200  0.71582225  0.83497975  1
  O  O72  1  0.26707750  0.61619100  0.11397900  1
  O  O73  1  0.51707750  0.86619100  0.13602100  1
  O  O74  1  0.01707750  0.63380900  0.86397900  1
  O  O75  1  0.26707750  0.38380900  0.88602100  1
  O  O76  1  0.18297150  0.02411750  0.74411050  1
  O  O77  1  0.93297150  0.77411750  0.50588950  1
  O  O78  1  0.43297150  0.72588250  0.49411050  1
  O  O79  1  0.68297150  0.47588250  0.25588950  1
  O  O80  1  0.36913200  0.78417775  0.66502025  1
  O  O81  1  0.61913200  0.03417775  0.58497975  1
  O  O82  1  0.61913200  0.96582225  0.41502025  1
  O  O83  1  0.86913200  0.71582225  0.33497975  1
  O  O84  1  0.76707750  0.61619100  0.61397900  1
  O  O85  1  0.01707750  0.86619100  0.63602100  1
  O  O86  1  0.51707750  0.63380900  0.36397900  1
  O  O87  1  0.76707750  0.38380900  0.38602100  1
