# generated using pymatgen
data_LiCu3F7
_symmetry_space_group_name_H-M   'P 1'
_cell_length_a   11.82931200
_cell_length_b   7.33972200
_cell_length_c   6.95384518
_cell_angle_alpha   90.00000000
_cell_angle_beta   119.00044240
_cell_angle_gamma   90.00000000
_symmetry_Int_Tables_number   1
_chemical_formula_structural   LiCu3F7
_chemical_formula_sum   'Li4 Cu12 F28'
_cell_volume   528.05786370
_cell_formula_units_Z   4
loop_
 _symmetry_equiv_pos_site_id
 _symmetry_equiv_pos_as_xyz
  1  'x, y, z'
loop_
 _atom_site_type_symbol
 _atom_site_label
 _atom_site_symmetry_multiplicity
 _atom_site_fract_x
 _atom_site_fract_y
 _atom_site_fract_z
 _atom_site_occupancy
  Li  Li0  1  0.50000000  0.00000000  0.00000000  1
  Li  Li1  1  0.50000000  0.00000000  0.50000000  1
  Li  Li2  1  0.00000000  0.50000000  0.00000000  1
  Li  Li3  1  0.00000000  0.50000000  0.50000000  1
  Cu  Cu4  1  0.25000000  0.25000000  0.00000000  1
  Cu  Cu5  1  0.25000000  0.25000000  0.50000000  1
  Cu  Cu6  1  0.00000000  0.00000000  0.00000000  1
  Cu  Cu7  1  0.00000000  0.00000000  0.50000000  1
  Cu  Cu8  1  0.25000000  0.75000000  0.00000000  1
  Cu  Cu9  1  0.25000000  0.75000000  0.50000000  1
  Cu  Cu10  1  0.75000000  0.75000000  0.00000000  1
  Cu  Cu11  1  0.75000000  0.75000000  0.50000000  1
  Cu  Cu12  1  0.50000000  0.50000000  0.00000000  1
  Cu  Cu13  1  0.50000000  0.50000000  0.50000000  1
  Cu  Cu14  1  0.75000000  0.25000000  0.00000000  1
  Cu  Cu15  1  0.75000000  0.25000000  0.50000000  1
  F  F16  1  0.67475000  0.69166100  0.68798400  1
  F  F17  1  0.58911700  0.71819500  0.99811300  1
  F  F18  1  0.64340050  0.04045050  0.89815800  1
  F  F19  1  0.58911700  0.28180500  0.49811300  1
  F  F20  1  0.50000000  0.60232600  0.25000000  1
  F  F21  1  0.64340050  0.95954950  0.39815800  1
  F  F22  1  0.67475000  0.30833900  0.18798400  1
  F  F23  1  0.32525000  0.69166100  0.81201600  1
  F  F24  1  0.35659950  0.04045050  0.60184200  1
  F  F25  1  0.50000000  0.39767400  0.75000000  1
  F  F26  1  0.41088300  0.71819500  0.50188700  1
  F  F27  1  0.35659950  0.95954950  0.10184200  1
  F  F28  1  0.41088300  0.28180500  0.00188700  1
  F  F29  1  0.32525000  0.30833900  0.31201600  1
  F  F30  1  0.17475000  0.19166100  0.68798400  1
  F  F31  1  0.08911700  0.21819500  0.99811300  1
  F  F32  1  0.14340050  0.54045050  0.89815800  1
  F  F33  1  0.08911700  0.78180500  0.49811300  1
  F  F34  1  0.00000000  0.10232600  0.25000000  1
  F  F35  1  0.14340050  0.45954950  0.39815800  1
  F  F36  1  0.17475000  0.80833900  0.18798400  1
  F  F37  1  0.82525000  0.19166100  0.81201600  1
  F  F38  1  0.85659950  0.54045050  0.60184200  1
  F  F39  1  0.00000000  0.89767400  0.75000000  1
  F  F40  1  0.91088300  0.21819500  0.50188700  1
  F  F41  1  0.85659950  0.45954950  0.10184200  1
  F  F42  1  0.91088300  0.78180500  0.00188700  1
  F  F43  1  0.82525000  0.80833900  0.31201600  1
