# generated using pymatgen
data_Sr8Cu8O17
_symmetry_space_group_name_H-M   'P 1'
_cell_length_a   15.76883400
_cell_length_b   7.82866600
_cell_length_c   8.11856566
_cell_angle_alpha   90.00000000
_cell_angle_beta   119.00265689
_cell_angle_gamma   90.00000000
_symmetry_Int_Tables_number   1
_chemical_formula_structural   Sr8Cu8O17
_chemical_formula_sum   'Sr16 Cu16 O34'
_cell_volume   876.54607387
_cell_formula_units_Z   2
loop_
 _symmetry_equiv_pos_site_id
 _symmetry_equiv_pos_as_xyz
  1  'x, y, z'
loop_
 _atom_site_type_symbol
 _atom_site_label
 _atom_site_symmetry_multiplicity
 _atom_site_fract_x
 _atom_site_fract_y
 _atom_site_fract_z
 _atom_site_occupancy
  Sr  Sr0  1  0.00000000  0.74871900  0.00000000  1
  Sr  Sr1  1  0.12009050  0.76123650  0.50005200  1
  Sr  Sr2  1  0.25000000  0.25000000  0.00000000  1
  Sr  Sr3  1  0.00000000  0.25128100  0.00000000  1
  Sr  Sr4  1  0.37990950  0.26123650  0.49994800  1
  Sr  Sr5  1  0.12009050  0.23876350  0.50005200  1
  Sr  Sr6  1  0.37990950  0.73876350  0.49994800  1
  Sr  Sr7  1  0.25000000  0.75000000  0.00000000  1
  Sr  Sr8  1  0.50000000  0.24871900  0.00000000  1
  Sr  Sr9  1  0.62009050  0.26123650  0.50005200  1
  Sr  Sr10  1  0.75000000  0.75000000  0.00000000  1
  Sr  Sr11  1  0.50000000  0.75128100  0.00000000  1
  Sr  Sr12  1  0.87990950  0.76123650  0.49994800  1
  Sr  Sr13  1  0.62009050  0.73876350  0.50005200  1
  Sr  Sr14  1  0.87990950  0.23876350  0.49994800  1
  Sr  Sr15  1  0.75000000  0.25000000  0.00000000  1
  Cu  Cu16  1  0.43500800  0.00000000  0.24053600  1
  Cu  Cu17  1  0.18874100  0.00000000  0.24520200  1
  Cu  Cu18  1  0.31570500  0.00000000  0.75351900  1
  Cu  Cu19  1  0.06509900  0.00000000  0.76158600  1
  Cu  Cu20  1  0.43490100  0.50000000  0.23841400  1
  Cu  Cu21  1  0.31125900  0.50000000  0.75479800  1
  Cu  Cu22  1  0.18429500  0.50000000  0.24648100  1
  Cu  Cu23  1  0.06499200  0.50000000  0.75946400  1
  Cu  Cu24  1  0.93500800  0.50000000  0.24053600  1
  Cu  Cu25  1  0.68874100  0.50000000  0.24520200  1
  Cu  Cu26  1  0.81570500  0.50000000  0.75351900  1
  Cu  Cu27  1  0.56509900  0.50000000  0.76158600  1
  Cu  Cu28  1  0.93490100  0.00000000  0.23841400  1
  Cu  Cu29  1  0.81125900  0.00000000  0.75479800  1
  Cu  Cu30  1  0.68429500  0.00000000  0.24648100  1
  Cu  Cu31  1  0.56499200  0.00000000  0.75946400  1
  O  O32  1  0.43840800  0.00000000  0.74655600  1
  O  O33  1  0.18872900  0.75015900  0.25477100  1
  O  O34  1  0.06745150  0.74564450  0.76971200  1
  O  O35  1  0.43254850  0.24564450  0.23028800  1
  O  O36  1  0.06496300  0.00000000  0.23397000  1
  O  O37  1  0.00000000  0.00000000  0.50000000  1
  O  O38  1  0.43503700  0.50000000  0.76603000  1
  O  O39  1  0.31516200  0.00000000  0.25460800  1
  O  O40  1  0.19757700  0.00000000  0.76626600  1
  O  O41  1  0.31127100  0.25015900  0.74522900  1
  O  O42  1  0.06745150  0.25435550  0.76971200  1
  O  O43  1  0.43254850  0.75435550  0.23028800  1
  O  O44  1  0.18872900  0.24984100  0.25477100  1
  O  O45  1  0.18483800  0.50000000  0.74539200  1
  O  O46  1  0.06159200  0.50000000  0.25344400  1
  O  O47  1  0.30242300  0.50000000  0.23373400  1
  O  O48  1  0.31127100  0.74984100  0.74522900  1
  O  O49  1  0.93840800  0.50000000  0.74655600  1
  O  O50  1  0.68872900  0.25015900  0.25477100  1
  O  O51  1  0.56745150  0.24564450  0.76971200  1
  O  O52  1  0.93254850  0.74564450  0.23028800  1
  O  O53  1  0.56496300  0.50000000  0.23397000  1
  O  O54  1  0.50000000  0.50000000  0.50000000  1
  O  O55  1  0.93503700  0.00000000  0.76603000  1
  O  O56  1  0.81516200  0.50000000  0.25460800  1
  O  O57  1  0.69757700  0.50000000  0.76626600  1
  O  O58  1  0.81127100  0.75015900  0.74522900  1
  O  O59  1  0.56745150  0.75435550  0.76971200  1
  O  O60  1  0.93254850  0.25435550  0.23028800  1
  O  O61  1  0.68872900  0.74984100  0.25477100  1
  O  O62  1  0.68483800  0.00000000  0.74539200  1
  O  O63  1  0.56159200  0.00000000  0.25344400  1
  O  O64  1  0.80242300  0.00000000  0.23373400  1
  O  O65  1  0.81127100  0.24984100  0.74522900  1
