# generated using pymatgen
data_Fe5Sn(PO4)6
_symmetry_space_group_name_H-M   'P 1'
_cell_length_a   8.68762193
_cell_length_b   8.68762193
_cell_length_c   20.76279762
_cell_angle_alpha   90.00000000
_cell_angle_beta   90.00000000
_cell_angle_gamma   120.00000000
_symmetry_Int_Tables_number   1
_chemical_formula_structural   Fe5Sn(PO4)6
_chemical_formula_sum   'Fe15 Sn3 P18 O72'
_cell_volume   1357.12024309
_cell_formula_units_Z   3
loop_
 _symmetry_equiv_pos_site_id
 _symmetry_equiv_pos_as_xyz
  1  'x, y, z'
loop_
 _atom_site_type_symbol
 _atom_site_label
 _atom_site_symmetry_multiplicity
 _atom_site_fract_x
 _atom_site_fract_y
 _atom_site_fract_z
 _atom_site_occupancy
  Fe  Fe0  1  0.33333333  0.66666667  0.67088567  1
  Fe  Fe1  1  0.33333333  0.66666667  0.01952067  1
  Fe  Fe2  1  0.33333333  0.66666667  0.16579067  1
  Fe  Fe3  1  0.33333333  0.66666667  0.81124167  1
  Fe  Fe4  1  0.33333333  0.66666667  0.31248367  1
  Fe  Fe5  1  0.00000000  0.00000000  0.00421900  1
  Fe  Fe6  1  0.00000000  0.00000000  0.35285400  1
  Fe  Fe7  1  0.00000000  0.00000000  0.49912400  1
  Fe  Fe8  1  0.00000000  0.00000000  0.14457500  1
  Fe  Fe9  1  0.00000000  0.00000000  0.64581700  1
  Fe  Fe10  1  0.66666667  0.33333333  0.33755233  1
  Fe  Fe11  1  0.66666667  0.33333333  0.68618733  1
  Fe  Fe12  1  0.66666667  0.33333333  0.83245733  1
  Fe  Fe13  1  0.66666667  0.33333333  0.47790833  1
  Fe  Fe14  1  0.66666667  0.33333333  0.97915033  1
  Sn  Sn15  1  0.33333333  0.66666667  0.52349467  1
  Sn  Sn16  1  0.00000000  0.00000000  0.85682800  1
  Sn  Sn17  1  0.66666667  0.33333333  0.19016133  1
  P  P18  1  0.96680700  0.33594000  0.08316200  1
  P  P19  1  0.36913300  0.03319300  0.08316200  1
  P  P20  1  0.66406000  0.63086700  0.08316200  1
  P  P21  1  0.00448833  0.70805267  0.24865767  1
  P  P22  1  0.29194733  0.29643567  0.24865767  1
  P  P23  1  0.70356433  0.99551167  0.24865767  1
  P  P24  1  0.63347367  0.66927333  0.41649533  1
  P  P25  1  0.03579967  0.36652633  0.41649533  1
  P  P26  1  0.33072667  0.96420033  0.41649533  1
  P  P27  1  0.67115500  0.04138600  0.58199100  1
  P  P28  1  0.95861400  0.62976900  0.58199100  1
  P  P29  1  0.37023100  0.32884500  0.58199100  1
  P  P30  1  0.30014033  0.00260667  0.74982867  1
  P  P31  1  0.70246633  0.69985967  0.74982867  1
  P  P32  1  0.99739333  0.29753367  0.74982867  1
  P  P33  1  0.33782167  0.37471933  0.91532433  1
  P  P34  1  0.62528067  0.96310233  0.91532433  1
  P  P35  1  0.03689767  0.66217833  0.91532433  1
  O  O36  1  0.14424733  0.46532367  0.35752167  1
  O  O37  1  0.32107633  0.85575267  0.35752167  1
  O  O38  1  0.53467633  0.67892367  0.35752167  1
  O  O39  1  0.98926067  0.17075333  0.07542233  1
  O  O40  1  0.87026267  0.33022233  0.14596433  1
  O  O41  1  0.15693267  0.50346633  0.09271033  1
  O  O42  1  0.18149267  0.01073933  0.07542233  1
  O  O43  1  0.34653367  0.84306733  0.09271033  1
  O  O44  1  0.99209000  0.79853400  0.18794200  1
  O  O45  1  0.49653367  0.65346633  0.09271033  1
  O  O46  1  0.83780833  0.51664067  0.25885267  1
  O  O47  1  0.20146600  0.19355600  0.18794200  1
  O  O48  1  0.45995967  0.12973733  0.14596433  1
  O  O49  1  0.82924667  0.81850733  0.07542233  1
  O  O50  1  0.17025400  0.68217700  0.23900100  1
  O  O51  1  0.66977767  0.54004033  0.14596433  1
  O  O52  1  0.31782300  0.48807700  0.23900100  1
  O  O53  1  0.48335933  0.32116767  0.25885267  1
  O  O54  1  0.51192300  0.82974600  0.23900100  1
  O  O55  1  0.80644400  0.00791000  0.18794200  1
  O  O56  1  0.67883233  0.16219167  0.25885267  1
  O  O57  1  0.12929400  0.65301600  0.97629000  1
  O  O58  1  0.34698400  0.47627800  0.97629000  1
  O  O59  1  0.52372200  0.87070600  0.97629000  1
  O  O60  1  0.81091400  0.79865700  0.69085500  1
  O  O61  1  0.98774300  0.18908600  0.69085500  1
  O  O62  1  0.20134300  0.01225700  0.69085500  1
  O  O63  1  0.65592733  0.50408667  0.40875567  1
  O  O64  1  0.53692933  0.66355567  0.47929767  1
  O  O65  1  0.82359933  0.83679967  0.42604367  1
  O  O66  1  0.84815933  0.34407267  0.40875567  1
  O  O67  1  0.01320033  0.17640067  0.42604367  1
  O  O68  1  0.65875667  0.13186733  0.52127533  1
  O  O69  1  0.16320033  0.98679967  0.42604367  1
  O  O70  1  0.50447500  0.84997400  0.59218600  1
  O  O71  1  0.86813267  0.52688933  0.52127533  1
  O  O72  1  0.12662633  0.46307067  0.47929767  1
  O  O73  1  0.49591333  0.15184067  0.40875567  1
  O  O74  1  0.83692067  0.01551033  0.57233433  1
  O  O75  1  0.33644433  0.87337367  0.47929767  1
  O  O76  1  0.98448967  0.82141033  0.57233433  1
  O  O77  1  0.15002600  0.65450100  0.59218600  1
  O  O78  1  0.17858967  0.16307933  0.57233433  1
  O  O79  1  0.47311067  0.34124333  0.52127533  1
  O  O80  1  0.34549900  0.49552500  0.59218600  1
  O  O81  1  0.79596067  0.98634933  0.30962333  1
  O  O82  1  0.01365067  0.80961133  0.30962333  1
  O  O83  1  0.19038867  0.20403933  0.30962333  1
  O  O84  1  0.47758067  0.13199033  0.02418833  1
  O  O85  1  0.65440967  0.52241933  0.02418833  1
  O  O86  1  0.86800967  0.34559033  0.02418833  1
  O  O87  1  0.32259400  0.83742000  0.74208900  1
  O  O88  1  0.20359600  0.99688900  0.81263100  1
  O  O89  1  0.49026600  0.17013300  0.75937700  1
  O  O90  1  0.51482600  0.67740600  0.74208900  1
  O  O91  1  0.67986700  0.50973400  0.75937700  1
  O  O92  1  0.32542333  0.46520067  0.85460867  1
  O  O93  1  0.82986700  0.32013300  0.75937700  1
  O  O94  1  0.17114167  0.18330733  0.92551933  1
  O  O95  1  0.53479933  0.86022267  0.85460867  1
  O  O96  1  0.79329300  0.79640400  0.81263100  1
  O  O97  1  0.16258000  0.48517400  0.74208900  1
  O  O98  1  0.50358733  0.34884367  0.90566767  1
  O  O99  1  0.00311100  0.20670700  0.81263100  1
  O  O100  1  0.65115633  0.15474367  0.90566767  1
  O  O101  1  0.81669267  0.98783433  0.92551933  1
  O  O102  1  0.84525633  0.49641267  0.90566767  1
  O  O103  1  0.13977733  0.67457667  0.85460867  1
  O  O104  1  0.01216567  0.82885833  0.92551933  1
  O  O105  1  0.46262733  0.31968267  0.64295667  1
  O  O106  1  0.68031733  0.14294467  0.64295667  1
  O  O107  1  0.85705533  0.53737267  0.64295667  1
