# generated using pymatgen
data_Li2CoOF3
_symmetry_space_group_name_H-M   'P 1'
_cell_length_a   10.37705159
_cell_length_b   5.84049837
_cell_length_c   5.87025570
_cell_angle_alpha   90.00000000
_cell_angle_beta   123.49978793
_cell_angle_gamma   90.00000000
_symmetry_Int_Tables_number   1
_chemical_formula_structural   Li2CoOF3
_chemical_formula_sum   'Li8 Co4 O4 F12'
_cell_volume   296.68019488
_cell_formula_units_Z   4
loop_
 _symmetry_equiv_pos_site_id
 _symmetry_equiv_pos_as_xyz
  1  'x, y, z'
loop_
 _atom_site_type_symbol
 _atom_site_label
 _atom_site_symmetry_multiplicity
 _atom_site_fract_x
 _atom_site_fract_y
 _atom_site_fract_z
 _atom_site_occupancy
  Li  Li0  1  0.50000000  0.50000000  0.00000000  1
  Li  Li1  1  0.50000000  0.50000000  0.50000000  1
  Li  Li2  1  0.61824100  0.00000000  0.89218575  1
  Li  Li3  1  0.38175900  0.00000000  0.10781425  1
  Li  Li4  1  0.00000000  0.00000000  0.00000000  1
  Li  Li5  1  0.00000000  0.00000000  0.50000000  1
  Li  Li6  1  0.11824100  0.50000000  0.89218575  1
  Li  Li7  1  0.88175900  0.50000000  0.10781425  1
  Co  Co8  1  0.75000000  0.75000000  0.50000000  1
  Co  Co9  1  0.75000000  0.25000000  0.50000000  1
  Co  Co10  1  0.25000000  0.25000000  0.50000000  1
  Co  Co11  1  0.25000000  0.75000000  0.50000000  1
  O  O12  1  0.25003250  0.00000000  0.68833975  1
  O  O13  1  0.74996750  0.00000000  0.31166025  1
  O  O14  1  0.75003250  0.50000000  0.68833975  1
  O  O15  1  0.24996750  0.50000000  0.31166025  1
  F  F16  1  0.74120900  0.50000000  0.23087525  1
  F  F17  1  0.25879100  0.50000000  0.76912475  1
  F  F18  1  0.51402550  0.26296550  0.26320625  1
  F  F19  1  0.51402550  0.73703450  0.26320625  1
  F  F20  1  0.48597450  0.26296550  0.73679375  1
  F  F21  1  0.48597450  0.73703450  0.73679375  1
  F  F22  1  0.24120900  0.00000000  0.23087525  1
  F  F23  1  0.75879100  0.00000000  0.76912475  1
  F  F24  1  0.01402550  0.76296550  0.26320625  1
  F  F25  1  0.01402550  0.23703450  0.26320625  1
  F  F26  1  0.98597450  0.76296550  0.73679375  1
  F  F27  1  0.98597450  0.23703450  0.73679375  1
