# generated using pymatgen
data_Na3Ti2(PO4)3
_symmetry_space_group_name_H-M   'P 1'
_cell_length_a   8.89976811
_cell_length_b   8.89976811
_cell_length_c   22.71388532
_cell_angle_alpha   90.00000000
_cell_angle_beta   90.00000000
_cell_angle_gamma   120.00000000
_symmetry_Int_Tables_number   1
_chemical_formula_structural   Na3Ti2(PO4)3
_chemical_formula_sum   'Na18 Ti12 P18 O72'
_cell_volume   1558.04301141
_cell_formula_units_Z   6
loop_
 _symmetry_equiv_pos_site_id
 _symmetry_equiv_pos_as_xyz
  1  'x, y, z'
loop_
 _atom_site_type_symbol
 _atom_site_label
 _atom_site_symmetry_multiplicity
 _atom_site_fract_x
 _atom_site_fract_y
 _atom_site_fract_z
 _atom_site_occupancy
  Na  Na0  1  0.97606167  0.36244833  0.27545333  1
  Na  Na1  1  0.28028000  0.30939500  0.05788000  1
  Na  Na2  1  0.02911500  0.71972000  0.05788000  1
  Na  Na3  1  0.63755167  0.61361333  0.27545333  1
  Na  Na4  1  0.38638667  0.02393833  0.27545333  1
  Na  Na5  1  0.69060500  0.97088500  0.05788000  1
  Na  Na6  1  0.64272833  0.69578167  0.60878667  1
  Na  Na7  1  0.94694667  0.64272833  0.39121333  1
  Na  Na8  1  0.69578167  0.05305333  0.39121333  1
  Na  Na9  1  0.30421833  0.94694667  0.60878667  1
  Na  Na10  1  0.05305333  0.35727167  0.60878667  1
  Na  Na11  1  0.35727167  0.30421833  0.39121333  1
  Na  Na12  1  0.30939500  0.02911500  0.94212000  1
  Na  Na13  1  0.61361333  0.97606167  0.72454667  1
  Na  Na14  1  0.36244833  0.38638667  0.72454667  1
  Na  Na15  1  0.97088500  0.28028000  0.94212000  1
  Na  Na16  1  0.71972000  0.69060500  0.94212000  1
  Na  Na17  1  0.02393833  0.63755167  0.72454667  1
  Ti  Ti18  1  0.00000000  0.00000000  0.14765600  1
  Ti  Ti19  1  0.33333333  0.66666667  0.01698767  1
  Ti  Ti20  1  0.33333333  0.66666667  0.31634567  1
  Ti  Ti21  1  0.66666667  0.33333333  0.18567733  1
  Ti  Ti22  1  0.66666667  0.33333333  0.48098933  1
  Ti  Ti23  1  0.00000000  0.00000000  0.35032100  1
  Ti  Ti24  1  0.00000000  0.00000000  0.64967900  1
  Ti  Ti25  1  0.33333333  0.66666667  0.51901067  1
  Ti  Ti26  1  0.33333333  0.66666667  0.81432267  1
  Ti  Ti27  1  0.66666667  0.33333333  0.68365433  1
  Ti  Ti28  1  0.66666667  0.33333333  0.98301233  1
  Ti  Ti29  1  0.00000000  0.00000000  0.85234400  1
  P  P30  1  0.95252200  0.33281500  0.08455800  1
  P  P31  1  0.28637367  0.28585533  0.24877533  1
  P  P32  1  0.99948167  0.71362633  0.24877533  1
  P  P33  1  0.66718500  0.61970700  0.08455800  1
  P  P34  1  0.38029300  0.04747800  0.08455800  1
  P  P35  1  0.71414467  0.00051833  0.24877533  1
  P  P36  1  0.61918867  0.66614833  0.41789133  1
  P  P37  1  0.95304033  0.61918867  0.58210867  1
  P  P38  1  0.66614833  0.04695967  0.58210867  1
  P  P39  1  0.33385167  0.95304033  0.41789133  1
  P  P40  1  0.04695967  0.38081133  0.41789133  1
  P  P41  1  0.38081133  0.33385167  0.58210867  1
  P  P42  1  0.28585533  0.99948167  0.75122467  1
  P  P43  1  0.61970700  0.95252200  0.91544200  1
  P  P44  1  0.33281500  0.38029300  0.91544200  1
  P  P45  1  0.00051833  0.28637367  0.75122467  1
  P  P46  1  0.71362633  0.71414467  0.75122467  1
  P  P47  1  0.04747800  0.66718500  0.91544200  1
  O  O48  1  0.93541200  0.78374000  0.30077300  1
  O  O49  1  0.84832800  0.06458800  0.30077300  1
  O  O50  1  0.86989300  0.35438900  0.14100000  1
  O  O51  1  0.99890400  0.18687400  0.09088000  1
  O  O52  1  0.21626000  0.15167200  0.30077300  1
  O  O53  1  0.85354067  0.52130333  0.24245333  1
  O  O54  1  0.18217067  0.20322633  0.19233333  1
  O  O55  1  0.11491333  0.50670867  0.06795367  1
  O  O56  1  0.27487133  0.44824667  0.26537967  1
  O  O57  1  0.02105567  0.81782933  0.19233333  1
  O  O58  1  0.47869667  0.33223733  0.24245333  1
  O  O59  1  0.17337533  0.72512867  0.26537967  1
  O  O60  1  0.49329133  0.60820467  0.06795367  1
  O  O61  1  0.18797000  0.00109600  0.09088000  1
  O  O62  1  0.64561100  0.51550400  0.14100000  1
  O  O63  1  0.39179533  0.88508667  0.06795367  1
  O  O64  1  0.55175333  0.82662467  0.26537967  1
  O  O65  1  0.48449600  0.13010700  0.14100000  1
  O  O66  1  0.81312600  0.81203000  0.09088000  1
  O  O67  1  0.45040667  0.18166133  0.03256033  1
  O  O68  1  0.66776267  0.14645933  0.24245333  1
  O  O69  1  0.79677367  0.97894433  0.19233333  1
  O  O70  1  0.81833867  0.26874533  0.03256033  1
  O  O71  1  0.73125467  0.54959333  0.03256033  1
  O  O72  1  0.60207867  0.11707333  0.63410633  1
  O  O73  1  0.51499467  0.39792133  0.63410633  1
  O  O74  1  0.53655967  0.68772233  0.47433333  1
  O  O75  1  0.66557067  0.52020733  0.42421333  1
  O  O76  1  0.88292667  0.48500533  0.63410633  1
  O  O77  1  0.52020733  0.85463667  0.57578667  1
  O  O78  1  0.84883733  0.53655967  0.52566667  1
  O  O79  1  0.78158000  0.84004200  0.40128700  1
  O  O80  1  0.94153800  0.78158000  0.59871300  1
  O  O81  1  0.68772233  0.15116267  0.52566667  1
  O  O82  1  0.14536333  0.66557067  0.57578667  1
  O  O83  1  0.84004200  0.05846200  0.59871300  1
  O  O84  1  0.15995800  0.94153800  0.40128700  1
  O  O85  1  0.85463667  0.33442933  0.42421333  1
  O  O86  1  0.31227767  0.84883733  0.47433333  1
  O  O87  1  0.05846200  0.21842000  0.40128700  1
  O  O88  1  0.21842000  0.15995800  0.59871300  1
  O  O89  1  0.15116267  0.46344033  0.47433333  1
  O  O90  1  0.47979267  0.14536333  0.42421333  1
  O  O91  1  0.11707333  0.51499467  0.36589367  1
  O  O92  1  0.33442933  0.47979267  0.57578667  1
  O  O93  1  0.46344033  0.31227767  0.52566667  1
  O  O94  1  0.48500533  0.60207867  0.36589367  1
  O  O95  1  0.39792133  0.88292667  0.36589367  1
  O  O96  1  0.26874533  0.45040667  0.96743967  1
  O  O97  1  0.18166133  0.73125467  0.96743967  1
  O  O98  1  0.20322633  0.02105567  0.80766667  1
  O  O99  1  0.33223733  0.85354067  0.75754667  1
  O  O100  1  0.54959333  0.81833867  0.96743967  1
  O  O101  1  0.18687400  0.18797000  0.90912000  1
  O  O102  1  0.51550400  0.86989300  0.85900000  1
  O  O103  1  0.44824667  0.17337533  0.73462033  1
  O  O104  1  0.60820467  0.11491333  0.93204633  1
  O  O105  1  0.35438900  0.48449600  0.85900000  1
  O  O106  1  0.81203000  0.99890400  0.90912000  1
  O  O107  1  0.50670867  0.39179533  0.93204633  1
  O  O108  1  0.82662467  0.27487133  0.73462033  1
  O  O109  1  0.52130333  0.66776267  0.75754667  1
  O  O110  1  0.97894433  0.18217067  0.80766667  1
  O  O111  1  0.72512867  0.55175333  0.73462033  1
  O  O112  1  0.88508667  0.49329133  0.93204633  1
  O  O113  1  0.81782933  0.79677367  0.80766667  1
  O  O114  1  0.14645933  0.47869667  0.75754667  1
  O  O115  1  0.78374000  0.84832800  0.69922700  1
  O  O116  1  0.00109600  0.81312600  0.90912000  1
  O  O117  1  0.13010700  0.64561100  0.85900000  1
  O  O118  1  0.15167200  0.93541200  0.69922700  1
  O  O119  1  0.06458800  0.21626000  0.69922700  1
