# generated using pymatgen
data_Li2Cu2F7
_symmetry_space_group_name_H-M   'P 1'
_cell_length_a   13.33508600
_cell_length_b   3.12416600
_cell_length_c   8.37319337
_cell_angle_alpha   90.00000000
_cell_angle_beta   125.48632480
_cell_angle_gamma   90.00000000
_symmetry_Int_Tables_number   1
_chemical_formula_structural   Li2Cu2F7
_chemical_formula_sum   'Li4 Cu4 F14'
_cell_volume   284.04097549
_cell_formula_units_Z   2
loop_
 _symmetry_equiv_pos_site_id
 _symmetry_equiv_pos_as_xyz
  1  'x, y, z'
loop_
 _atom_site_type_symbol
 _atom_site_label
 _atom_site_symmetry_multiplicity
 _atom_site_fract_x
 _atom_site_fract_y
 _atom_site_fract_z
 _atom_site_occupancy
  Li  Li0  1  0.20248900  0.50000000  0.66155200  1
  Li  Li1  1  0.74012600  0.50000000  0.10609700  1
  Li  Li2  1  0.70248900  0.00000000  0.66155200  1
  Li  Li3  1  0.24012600  0.00000000  0.10609700  1
  Cu  Cu4  1  0.02934400  0.00000000  0.30128000  1
  Cu  Cu5  1  0.97716400  0.50000000  0.85834800  1
  Cu  Cu6  1  0.52934400  0.50000000  0.30128000  1
  Cu  Cu7  1  0.47716400  0.00000000  0.85834800  1
  F  F8  1  0.31205300  0.00000000  0.76940600  1
  F  F9  1  0.14204100  0.50000000  0.37362300  1
  F  F10  1  0.00671600  0.00000000  0.04871200  1
  F  F11  1  0.08191900  0.00000000  0.56275800  1
  F  F12  1  0.15508200  0.50000000  0.98469400  1
  F  F13  1  0.90874800  0.50000000  0.22201100  1
  F  F14  1  0.94831300  0.00000000  0.69986800  1
  F  F15  1  0.81205300  0.50000000  0.76940600  1
  F  F16  1  0.64204100  0.00000000  0.37362300  1
  F  F17  1  0.50671600  0.50000000  0.04871200  1
  F  F18  1  0.58191900  0.50000000  0.56275800  1
  F  F19  1  0.65508200  0.00000000  0.98469400  1
  F  F20  1  0.40874800  0.00000000  0.22201100  1
  F  F21  1  0.44831300  0.50000000  0.69986800  1
