# generated using pymatgen
data_MnV4CoO12
_symmetry_space_group_name_H-M   'P 1'
_cell_length_a   10.15352400
_cell_length_b   9.16242400
_cell_length_c   5.88451863
_cell_angle_alpha   90.00000000
_cell_angle_beta   110.66639106
_cell_angle_gamma   90.00000000
_symmetry_Int_Tables_number   1
_chemical_formula_structural   MnV4CoO12
_chemical_formula_sum   'Mn2 V8 Co2 O24'
_cell_volume   512.21478784
_cell_formula_units_Z   2
loop_
 _symmetry_equiv_pos_site_id
 _symmetry_equiv_pos_as_xyz
  1  'x, y, z'
loop_
 _atom_site_type_symbol
 _atom_site_label
 _atom_site_symmetry_multiplicity
 _atom_site_fract_x
 _atom_site_fract_y
 _atom_site_fract_z
 _atom_site_occupancy
  Mn  Mn0  1  0.00000000  0.91477600  0.00000000  1
  Mn  Mn1  1  0.50000000  0.41477600  0.00000000  1
  V  V2  1  0.20176550  0.40762550  0.48322000  1
  V  V3  1  0.20295350  0.59081450  0.98687900  1
  V  V4  1  0.79823450  0.40762550  0.51678000  1
  V  V5  1  0.79704650  0.59081450  0.01312100  1
  V  V6  1  0.70176550  0.90762550  0.48322000  1
  V  V7  1  0.70295350  0.09081450  0.98687900  1
  V  V8  1  0.29823450  0.90762550  0.51678000  1
  V  V9  1  0.29704650  0.09081450  0.01312100  1
  Co  Co10  1  0.00000000  0.08839500  0.50000000  1
  Co  Co11  1  0.50000000  0.58839500  0.50000000  1
  O  O12  1  0.38250400  0.41927300  0.59773300  1
  O  O13  1  0.14339650  0.23426650  0.45760400  1
  O  O14  1  0.38264850  0.58202250  0.11133100  1
  O  O15  1  0.14165700  0.50167300  0.69503100  1
  O  O16  1  0.85660350  0.23426650  0.54239600  1
  O  O17  1  0.13720700  0.49814400  0.19393500  1
  O  O18  1  0.85834300  0.50167300  0.30496900  1
  O  O19  1  0.14768000  0.76459600  0.95734700  1
  O  O20  1  0.86279300  0.49814400  0.80606500  1
  O  O21  1  0.61749600  0.41927300  0.40226700  1
  O  O22  1  0.85232000  0.76459600  0.04265300  1
  O  O23  1  0.61735150  0.58202250  0.88866900  1
  O  O24  1  0.88250400  0.91927300  0.59773300  1
  O  O25  1  0.64339650  0.73426650  0.45760400  1
  O  O26  1  0.88264850  0.08202250  0.11133100  1
  O  O27  1  0.64165700  0.00167300  0.69503100  1
  O  O28  1  0.35660350  0.73426650  0.54239600  1
  O  O29  1  0.63720700  0.99814400  0.19393500  1
  O  O30  1  0.35834300  0.00167300  0.30496900  1
  O  O31  1  0.64768000  0.26459600  0.95734700  1
  O  O32  1  0.36279300  0.99814400  0.80606500  1
  O  O33  1  0.11749600  0.91927300  0.40226700  1
  O  O34  1  0.35232000  0.26459600  0.04265300  1
  O  O35  1  0.11735150  0.08202250  0.88866900  1
