# generated using pymatgen
data_Tl16O15F17
_symmetry_space_group_name_H-M   'P 1'
_cell_length_a   11.22020400
_cell_length_b   15.73621800
_cell_length_c   9.67471897
_cell_angle_alpha   90.00000000
_cell_angle_beta   125.34853719
_cell_angle_gamma   90.00000000
_symmetry_Int_Tables_number   1
_chemical_formula_structural   Tl16O15F17
_chemical_formula_sum   'Tl32 O30 F34'
_cell_volume   1393.29195925
_cell_formula_units_Z   2
loop_
 _symmetry_equiv_pos_site_id
 _symmetry_equiv_pos_as_xyz
  1  'x, y, z'
loop_
 _atom_site_type_symbol
 _atom_site_label
 _atom_site_symmetry_multiplicity
 _atom_site_fract_x
 _atom_site_fract_y
 _atom_site_fract_z
 _atom_site_occupancy
  Tl  Tl0  1  0.87568750  0.87654850  0.27130100  1
  Tl  Tl1  1  0.87568750  0.12345150  0.27130100  1
  Tl  Tl2  1  0.02159800  0.00000000  0.99914900  1
  Tl  Tl3  1  0.71922650  0.24986050  0.48722500  1
  Tl  Tl4  1  0.71922650  0.75013950  0.48722500  1
  Tl  Tl5  1  0.76213100  0.00000000  0.49780500  1
  Tl  Tl6  1  0.61293750  0.62536350  0.73464100  1
  Tl  Tl7  1  0.37187050  0.14259850  0.26612600  1
  Tl  Tl8  1  0.37187050  0.85740150  0.26612600  1
  Tl  Tl9  1  0.61293750  0.37463650  0.73464100  1
  Tl  Tl10  1  0.63027300  0.13414900  0.74009800  1
  Tl  Tl11  1  0.63027300  0.86585100  0.74009800  1
  Tl  Tl12  1  0.48852800  0.75129700  0.01336000  1
  Tl  Tl13  1  0.48852800  0.24870300  0.01336000  1
  Tl  Tl14  1  0.52649100  0.00000000  0.01236500  1
  Tl  Tl15  1  0.21435100  0.00000000  0.47533400  1
  Tl  Tl16  1  0.37568750  0.37654850  0.27130100  1
  Tl  Tl17  1  0.37568750  0.62345150  0.27130100  1
  Tl  Tl18  1  0.52159800  0.50000000  0.99914900  1
  Tl  Tl19  1  0.21922650  0.74986050  0.48722500  1
  Tl  Tl20  1  0.21922650  0.25013950  0.48722500  1
  Tl  Tl21  1  0.26213100  0.50000000  0.49780500  1
  Tl  Tl22  1  0.11293750  0.12536350  0.73464100  1
  Tl  Tl23  1  0.87187050  0.64259850  0.26612600  1
  Tl  Tl24  1  0.87187050  0.35740150  0.26612600  1
  Tl  Tl25  1  0.11293750  0.87463650  0.73464100  1
  Tl  Tl26  1  0.13027300  0.63414900  0.74009800  1
  Tl  Tl27  1  0.13027300  0.36585100  0.74009800  1
  Tl  Tl28  1  0.98852800  0.25129700  0.01336000  1
  Tl  Tl29  1  0.98852800  0.74870300  0.01336000  1
  Tl  Tl30  1  0.02649100  0.50000000  0.01236500  1
  Tl  Tl31  1  0.71435100  0.50000000  0.47533400  1
  O  O32  1  0.01167900  0.00000000  0.21571700  1
  O  O33  1  0.75492000  0.00000000  0.22292500  1
  O  O34  1  0.04924700  0.00000000  0.79329700  1
  O  O35  1  0.86519600  0.87878500  0.50705600  1
  O  O36  1  0.86519600  0.12121500  0.50705600  1
  O  O37  1  0.71918650  0.74761850  0.25273400  1
  O  O38  1  0.71918650  0.25238150  0.25273400  1
  O  O39  1  0.60321600  0.13421900  0.49790900  1
  O  O40  1  0.60321600  0.86578100  0.49790900  1
  O  O41  1  0.12301150  0.12108850  0.50542600  1
  O  O42  1  0.12301150  0.87891150  0.50542600  1
  O  O43  1  0.45733550  0.26194650  0.22591900  1
  O  O44  1  0.25570950  0.23905550  0.78369800  1
  O  O45  1  0.45733550  0.73805350  0.22591900  1
  O  O46  1  0.25570950  0.76094450  0.78369800  1
  O  O47  1  0.51167900  0.50000000  0.21571700  1
  O  O48  1  0.25492000  0.50000000  0.22292500  1
  O  O49  1  0.54924700  0.50000000  0.79329700  1
  O  O50  1  0.36519600  0.37878500  0.50705600  1
  O  O51  1  0.36519600  0.62121500  0.50705600  1
  O  O52  1  0.21918650  0.24761850  0.25273400  1
  O  O53  1  0.21918650  0.75238150  0.25273400  1
  O  O54  1  0.10321600  0.63421900  0.49790900  1
  O  O55  1  0.10321600  0.36578100  0.49790900  1
  O  O56  1  0.62301150  0.62108850  0.50542600  1
  O  O57  1  0.62301150  0.37891150  0.50542600  1
  O  O58  1  0.95733550  0.76194650  0.22591900  1
  O  O59  1  0.75570950  0.73905550  0.78369800  1
  O  O60  1  0.95733550  0.23805350  0.22591900  1
  O  O61  1  0.75570950  0.26094450  0.78369800  1
  F  F62  1  0.87434350  0.88314050  0.96432000  1
  F  F63  1  0.87434350  0.11685950  0.96432000  1
  F  F64  1  0.76267500  0.00000000  0.73133200  1
  F  F65  1  0.52938400  0.00000000  0.27227000  1
  F  F66  1  0.55425600  0.00000000  0.77695200  1
  F  F67  1  0.14062300  0.13906600  0.00054800  1
  F  F68  1  0.62673250  0.13453950  0.97721900  1
  F  F69  1  0.14062300  0.86093400  0.00054800  1
  F  F70  1  0.62673250  0.86546050  0.97721900  1
  F  F71  1  0.28049500  0.00000000  0.23714800  1
  F  F72  1  0.36658900  0.89191900  0.50795500  1
  F  F73  1  0.36658900  0.10808100  0.50795500  1
  F  F74  1  0.47608100  0.75487000  0.72802500  1
  F  F75  1  0.47608100  0.24513000  0.72802500  1
  F  F76  1  0.30725200  0.00000000  0.77233000  1
  F  F77  1  0.40621250  0.88802650  0.03312800  1
  F  F78  1  0.40621250  0.11197350  0.03312800  1
  F  F79  1  0.37434350  0.38314050  0.96432000  1
  F  F80  1  0.37434350  0.61685950  0.96432000  1
  F  F81  1  0.26267500  0.50000000  0.73133200  1
  F  F82  1  0.02938400  0.50000000  0.27227000  1
  F  F83  1  0.05425600  0.50000000  0.77695200  1
  F  F84  1  0.64062300  0.63906600  0.00054800  1
  F  F85  1  0.12673250  0.63453950  0.97721900  1
  F  F86  1  0.64062300  0.36093400  0.00054800  1
  F  F87  1  0.12673250  0.36546050  0.97721900  1
  F  F88  1  0.78049500  0.50000000  0.23714800  1
  F  F89  1  0.86658900  0.39191900  0.50795500  1
  F  F90  1  0.86658900  0.60808100  0.50795500  1
  F  F91  1  0.97608100  0.25487000  0.72802500  1
  F  F92  1  0.97608100  0.74513000  0.72802500  1
  F  F93  1  0.80725200  0.50000000  0.77233000  1
  F  F94  1  0.90621250  0.38802650  0.03312800  1
  F  F95  1  0.90621250  0.61197350  0.03312800  1
