# generated using pymatgen
data_Mn2CrO6
_symmetry_space_group_name_H-M   'P 1'
_cell_length_a   5.06199800
_cell_length_b   8.80211600
_cell_length_c   9.61052300
_cell_angle_alpha   90.00000000
_cell_angle_beta   90.00000000
_cell_angle_gamma   90.00000000
_symmetry_Int_Tables_number   1
_chemical_formula_structural   Mn2CrO6
_chemical_formula_sum   'Mn8 Cr4 O24'
_cell_volume   428.20928432
_cell_formula_units_Z   4
loop_
 _symmetry_equiv_pos_site_id
 _symmetry_equiv_pos_as_xyz
  1  'x, y, z'
loop_
 _atom_site_type_symbol
 _atom_site_label
 _atom_site_symmetry_multiplicity
 _atom_site_fract_x
 _atom_site_fract_y
 _atom_site_fract_z
 _atom_site_occupancy
  Mn  Mn0  1  0.50000000  0.16704200  0.00000000  1
  Mn  Mn1  1  0.50000000  0.33295800  0.50000000  1
  Mn  Mn2  1  0.00000000  0.16704200  0.50000000  1
  Mn  Mn3  1  0.00000000  0.33295800  0.00000000  1
  Mn  Mn4  1  0.00000000  0.66704200  0.00000000  1
  Mn  Mn5  1  0.00000000  0.83295800  0.50000000  1
  Mn  Mn6  1  0.50000000  0.66704200  0.50000000  1
  Mn  Mn7  1  0.50000000  0.83295800  0.00000000  1
  Cr  Cr8  1  0.50000000  0.00000000  0.50000000  1
  Cr  Cr9  1  0.00000000  0.00000000  0.00000000  1
  Cr  Cr10  1  0.00000000  0.50000000  0.50000000  1
  Cr  Cr11  1  0.50000000  0.50000000  0.00000000  1
  O  O12  1  0.66700300  0.16764800  0.60001500  1
  O  O13  1  0.83299700  0.33235200  0.39998500  1
  O  O14  1  0.66700300  0.33235200  0.89998500  1
  O  O15  1  0.33299700  0.33235200  0.10001500  1
  O  O16  1  0.33380700  0.00000000  0.09933500  1
  O  O17  1  0.16619300  0.00000000  0.59933500  1
  O  O18  1  0.83380700  0.00000000  0.40066500  1
  O  O19  1  0.33299700  0.16764800  0.39998500  1
  O  O20  1  0.66619300  0.00000000  0.90066500  1
  O  O21  1  0.16700300  0.16764800  0.89998500  1
  O  O22  1  0.83299700  0.16764800  0.10001500  1
  O  O23  1  0.16700300  0.33235200  0.60001500  1
  O  O24  1  0.16700300  0.66764800  0.60001500  1
  O  O25  1  0.33299700  0.83235200  0.39998500  1
  O  O26  1  0.16700300  0.83235200  0.89998500  1
  O  O27  1  0.83299700  0.83235200  0.10001500  1
  O  O28  1  0.83380700  0.50000000  0.09933500  1
  O  O29  1  0.66619300  0.50000000  0.59933500  1
  O  O30  1  0.33380700  0.50000000  0.40066500  1
  O  O31  1  0.83299700  0.66764800  0.39998500  1
  O  O32  1  0.16619300  0.50000000  0.90066500  1
  O  O33  1  0.66700300  0.66764800  0.89998500  1
  O  O34  1  0.33299700  0.66764800  0.10001500  1
  O  O35  1  0.66700300  0.83235200  0.60001500  1
