# generated using pymatgen
data_Li5Fe5(SbO6)2
_symmetry_space_group_name_H-M   'P 1'
_cell_length_a   5.37528800
_cell_length_b   9.26445000
_cell_length_c   10.26561375
_cell_angle_alpha   90.00000000
_cell_angle_beta   101.53048940
_cell_angle_gamma   90.00000000
_symmetry_Int_Tables_number   1
_chemical_formula_structural   Li5Fe5(SbO6)2
_chemical_formula_sum   'Li10 Fe10 Sb4 O24'
_cell_volume   500.90102816
_cell_formula_units_Z   2
loop_
 _symmetry_equiv_pos_site_id
 _symmetry_equiv_pos_as_xyz
  1  'x, y, z'
loop_
 _atom_site_type_symbol
 _atom_site_label
 _atom_site_symmetry_multiplicity
 _atom_site_fract_x
 _atom_site_fract_y
 _atom_site_fract_z
 _atom_site_occupancy
  Li  Li0  1  0.24165100  0.91638300  0.25626400  1
  Li  Li1  1  0.24912850  0.07940550  0.74458600  1
  Li  Li2  1  0.75834900  0.91638300  0.74373600  1
  Li  Li3  1  0.75087150  0.07940550  0.25541400  1
  Li  Li4  1  0.50000000  0.41852800  0.50000000  1
  Li  Li5  1  0.74165100  0.41638300  0.25626400  1
  Li  Li6  1  0.74912850  0.57940550  0.74458600  1
  Li  Li7  1  0.25834900  0.41638300  0.74373600  1
  Li  Li8  1  0.25087150  0.57940550  0.25541400  1
  Li  Li9  1  0.00000000  0.91852800  0.50000000  1
  Fe  Fe10  1  0.50000000  0.58239400  0.00000000  1
  Fe  Fe11  1  0.25415100  0.75143600  0.74641700  1
  Fe  Fe12  1  0.74584900  0.75143600  0.25358300  1
  Fe  Fe13  1  0.50000000  0.91735000  0.00000000  1
  Fe  Fe14  1  0.50000000  0.08569400  0.50000000  1
  Fe  Fe15  1  0.00000000  0.08239400  0.00000000  1
  Fe  Fe16  1  0.75415100  0.25143600  0.74641700  1
  Fe  Fe17  1  0.24584900  0.25143600  0.25358300  1
  Fe  Fe18  1  0.00000000  0.41735000  0.00000000  1
  Fe  Fe19  1  0.00000000  0.58569400  0.50000000  1
  Sb  Sb20  1  0.50000000  0.74971100  0.50000000  1
  Sb  Sb21  1  0.50000000  0.25072900  0.00000000  1
  Sb  Sb22  1  0.00000000  0.24971100  0.50000000  1
  Sb  Sb23  1  0.00000000  0.75072900  0.00000000  1
  O  O24  1  0.88693300  0.09637800  0.61602500  1
  O  O25  1  0.11306700  0.09637800  0.38397500  1
  O  O26  1  0.36432450  0.74973450  0.12237800  1
  O  O27  1  0.63567550  0.74973450  0.87762200  1
  O  O28  1  0.38913900  0.90304600  0.61788800  1
  O  O29  1  0.61086100  0.90304600  0.38211200  1
  O  O30  1  0.36108800  0.09283600  0.12528000  1
  O  O31  1  0.63891200  0.09283600  0.87472000  1
  O  O32  1  0.35458100  0.24638400  0.61503400  1
  O  O33  1  0.64541900  0.24638400  0.38496600  1
  O  O34  1  0.86167800  0.91219400  0.12263900  1
  O  O35  1  0.13832200  0.91219400  0.87736100  1
  O  O36  1  0.38693300  0.59637800  0.61602500  1
  O  O37  1  0.61306700  0.59637800  0.38397500  1
  O  O38  1  0.86432450  0.24973450  0.12237800  1
  O  O39  1  0.13567550  0.24973450  0.87762200  1
  O  O40  1  0.88913900  0.40304600  0.61788800  1
  O  O41  1  0.11086100  0.40304600  0.38211200  1
  O  O42  1  0.86108800  0.59283600  0.12528000  1
  O  O43  1  0.13891200  0.59283600  0.87472000  1
  O  O44  1  0.85458100  0.74638400  0.61503400  1
  O  O45  1  0.14541900  0.74638400  0.38496600  1
  O  O46  1  0.36167800  0.41219400  0.12263900  1
  O  O47  1  0.63832200  0.41219400  0.87736100  1
