# generated using pymatgen
data_Li2FeBO4
_symmetry_space_group_name_H-M   'P 1'
_cell_length_a   6.99356402
_cell_length_b   7.25065202
_cell_length_c   6.17245100
_cell_angle_alpha   90.00000000
_cell_angle_beta   90.00000000
_cell_angle_gamma   90.00000000
_symmetry_Int_Tables_number   1
_chemical_formula_structural   Li2FeBO4
_chemical_formula_sum   'Li8 Fe4 B4 O16'
_cell_volume   312.99202281
_cell_formula_units_Z   4
loop_
 _symmetry_equiv_pos_site_id
 _symmetry_equiv_pos_as_xyz
  1  'x, y, z'
loop_
 _atom_site_type_symbol
 _atom_site_label
 _atom_site_symmetry_multiplicity
 _atom_site_fract_x
 _atom_site_fract_y
 _atom_site_fract_z
 _atom_site_occupancy
  Li  Li0  1  0.00000000  0.80476575  0.25000000  1
  Li  Li1  1  0.00000000  0.19523425  0.75000000  1
  Li  Li2  1  0.32583700  0.00000000  0.50000000  1
  Li  Li3  1  0.67416300  0.00000000  0.00000000  1
  Li  Li4  1  0.50000000  0.30476575  0.25000000  1
  Li  Li5  1  0.50000000  0.69523425  0.75000000  1
  Li  Li6  1  0.82583700  0.50000000  0.50000000  1
  Li  Li7  1  0.17416300  0.50000000  0.00000000  1
  Fe  Fe8  1  0.00000000  0.81576100  0.75000000  1
  Fe  Fe9  1  0.00000000  0.18423900  0.25000000  1
  Fe  Fe10  1  0.50000000  0.31576100  0.75000000  1
  Fe  Fe11  1  0.50000000  0.68423900  0.25000000  1
  B  B12  1  0.31918825  0.00000000  0.00000000  1
  B  B13  1  0.68081175  0.00000000  0.50000000  1
  B  B14  1  0.81918825  0.50000000  0.00000000  1
  B  B15  1  0.18081175  0.50000000  0.50000000  1
  O  O16  1  0.94742275  0.66642825  0.99207175  1
  O  O17  1  0.05257725  0.66642825  0.50792825  1
  O  O18  1  0.94742275  0.33357175  0.00792825  1
  O  O19  1  0.05257725  0.33357175  0.49207175  1
  O  O20  1  0.19961925  0.99345875  0.79926925  1
  O  O21  1  0.80038075  0.99345875  0.70073075  1
  O  O22  1  0.80038075  0.00654125  0.29926925  1
  O  O23  1  0.19961925  0.00654125  0.20073075  1
  O  O24  1  0.44742275  0.16642825  0.99207175  1
  O  O25  1  0.55257725  0.16642825  0.50792825  1
  O  O26  1  0.44742275  0.83357175  0.00792825  1
  O  O27  1  0.55257725  0.83357175  0.49207175  1
  O  O28  1  0.69961925  0.49345875  0.79926925  1
  O  O29  1  0.30038075  0.49345875  0.70073075  1
  O  O30  1  0.30038075  0.50654125  0.29926925  1
  O  O31  1  0.69961925  0.50654125  0.20073075  1
