# generated using pymatgen
data_Li2CuSiO4
_symmetry_space_group_name_H-M   'P 1'
_cell_length_a   7.21194800
_cell_length_b   7.69357000
_cell_length_c   6.30294000
_cell_angle_alpha   90.00000000
_cell_angle_beta   90.00000000
_cell_angle_gamma   90.00000000
_symmetry_Int_Tables_number   1
_chemical_formula_structural   Li2CuSiO4
_chemical_formula_sum   'Li8 Cu4 Si4 O16'
_cell_volume   349.72257642
_cell_formula_units_Z   4
loop_
 _symmetry_equiv_pos_site_id
 _symmetry_equiv_pos_as_xyz
  1  'x, y, z'
loop_
 _atom_site_type_symbol
 _atom_site_label
 _atom_site_symmetry_multiplicity
 _atom_site_fract_x
 _atom_site_fract_y
 _atom_site_fract_z
 _atom_site_occupancy
  Li  Li0  1  0.31021500  0.00000000  0.50000000  1
  Li  Li1  1  0.50000000  0.68395300  0.75000000  1
  Li  Li2  1  0.50000000  0.31604700  0.25000000  1
  Li  Li3  1  0.68978500  0.00000000  0.00000000  1
  Li  Li4  1  0.81021500  0.50000000  0.50000000  1
  Li  Li5  1  0.00000000  0.18395300  0.75000000  1
  Li  Li6  1  0.00000000  0.81604700  0.25000000  1
  Li  Li7  1  0.18978500  0.50000000  0.00000000  1
  Cu  Cu8  1  0.50000000  0.68265500  0.25000000  1
  Cu  Cu9  1  0.50000000  0.31734500  0.75000000  1
  Cu  Cu10  1  0.00000000  0.18265500  0.25000000  1
  Cu  Cu11  1  0.00000000  0.81734500  0.75000000  1
  Si  Si12  1  0.32792200  0.00000000  0.00000000  1
  Si  Si13  1  0.67207800  0.00000000  0.50000000  1
  Si  Si14  1  0.82792200  0.50000000  0.00000000  1
  Si  Si15  1  0.17207800  0.50000000  0.50000000  1
  O  O16  1  0.19667100  0.99872400  0.21474300  1
  O  O17  1  0.19667100  0.00127600  0.78525700  1
  O  O18  1  0.47017450  0.83124750  0.00076000  1
  O  O19  1  0.47017450  0.16875250  0.99924000  1
  O  O20  1  0.52982550  0.16875250  0.50076000  1
  O  O21  1  0.52982550  0.83124750  0.49924000  1
  O  O22  1  0.80332900  0.00127600  0.71474300  1
  O  O23  1  0.80332900  0.99872400  0.28525700  1
  O  O24  1  0.69667100  0.49872400  0.21474300  1
  O  O25  1  0.69667100  0.50127600  0.78525700  1
  O  O26  1  0.97017450  0.33124750  0.00076000  1
  O  O27  1  0.97017450  0.66875250  0.99924000  1
  O  O28  1  0.02982550  0.66875250  0.50076000  1
  O  O29  1  0.02982550  0.33124750  0.49924000  1
  O  O30  1  0.30332900  0.50127600  0.71474300  1
  O  O31  1  0.30332900  0.49872400  0.28525700  1
