# generated using pymatgen
data_MnCo3O8
_symmetry_space_group_name_H-M   'P 1'
_cell_length_a   4.92465400
_cell_length_b   2.87089800
_cell_length_c   19.58737794
_cell_angle_alpha   90.00000000
_cell_angle_beta   90.07535450
_cell_angle_gamma   90.00000000
_symmetry_Int_Tables_number   1
_chemical_formula_structural   MnCo3O8
_chemical_formula_sum   'Mn2 Co6 O16'
_cell_volume   276.92962221
_cell_formula_units_Z   2
loop_
 _symmetry_equiv_pos_site_id
 _symmetry_equiv_pos_as_xyz
  1  'x, y, z'
loop_
 _atom_site_type_symbol
 _atom_site_label
 _atom_site_symmetry_multiplicity
 _atom_site_fract_x
 _atom_site_fract_y
 _atom_site_fract_z
 _atom_site_occupancy
  Mn  Mn0  1  0.00000000  0.00000000  0.00000000  1
  Mn  Mn1  1  0.50000000  0.50000000  0.00000000  1
  Co  Co2  1  0.49998600  0.00000000  0.74999100  1
  Co  Co3  1  0.00000000  0.00000000  0.50000000  1
  Co  Co4  1  0.50001400  0.00000000  0.25000900  1
  Co  Co5  1  0.99998600  0.50000000  0.74999100  1
  Co  Co6  1  0.50000000  0.50000000  0.50000000  1
  Co  Co7  1  0.00001400  0.50000000  0.25000900  1
  O  O8  1  0.83313200  0.00000000  0.79750800  1
  O  O9  1  0.33353800  0.00000000  0.94969500  1
  O  O10  1  0.83313400  0.00000000  0.29752700  1
  O  O11  1  0.66683800  0.00000000  0.54757000  1
  O  O12  1  0.16686600  0.00000000  0.70247300  1
  O  O13  1  0.33316200  0.00000000  0.45243000  1
  O  O14  1  0.66646200  0.00000000  0.05030500  1
  O  O15  1  0.16686800  0.00000000  0.20249200  1
  O  O16  1  0.33313200  0.50000000  0.79750800  1
  O  O17  1  0.83353800  0.50000000  0.94969500  1
  O  O18  1  0.33313400  0.50000000  0.29752700  1
  O  O19  1  0.16683800  0.50000000  0.54757000  1
  O  O20  1  0.66686600  0.50000000  0.70247300  1
  O  O21  1  0.83316200  0.50000000  0.45243000  1
  O  O22  1  0.16646200  0.50000000  0.05030500  1
  O  O23  1  0.66686800  0.50000000  0.20249200  1
