# generated using pymatgen
data_Sr3Rh2O7
_symmetry_space_group_name_H-M   'P 1'
_cell_length_a   5.54045600
_cell_length_b   21.26471200
_cell_length_c   5.54082100
_cell_angle_alpha   90.00000000
_cell_angle_beta   90.00000000
_cell_angle_gamma   90.00000000
_symmetry_Int_Tables_number   1
_chemical_formula_structural   Sr3Rh2O7
_chemical_formula_sum   'Sr12 Rh8 O28'
_cell_volume   652.79848169
_cell_formula_units_Z   4
loop_
 _symmetry_equiv_pos_site_id
 _symmetry_equiv_pos_as_xyz
  1  'x, y, z'
loop_
 _atom_site_type_symbol
 _atom_site_label
 _atom_site_symmetry_multiplicity
 _atom_site_fract_x
 _atom_site_fract_y
 _atom_site_fract_z
 _atom_site_occupancy
  Sr  Sr0  1  0.00000000  0.81279500  0.50000000  1
  Sr  Sr1  1  0.50000000  0.68720500  0.50000000  1
  Sr  Sr2  1  0.00000000  0.00000000  0.50000000  1
  Sr  Sr3  1  0.50000000  0.81279500  0.00000000  1
  Sr  Sr4  1  0.00000000  0.68720500  0.00000000  1
  Sr  Sr5  1  0.50000000  0.00000000  0.00000000  1
  Sr  Sr6  1  0.50000000  0.31279500  0.50000000  1
  Sr  Sr7  1  0.00000000  0.18720500  0.50000000  1
  Sr  Sr8  1  0.50000000  0.50000000  0.50000000  1
  Sr  Sr9  1  0.00000000  0.31279500  0.00000000  1
  Sr  Sr10  1  0.50000000  0.18720500  0.00000000  1
  Sr  Sr11  1  0.00000000  0.50000000  0.00000000  1
  Rh  Rh12  1  0.00000000  0.90254200  0.00000000  1
  Rh  Rh13  1  0.50000000  0.90254200  0.50000000  1
  Rh  Rh14  1  0.50000000  0.59745800  0.00000000  1
  Rh  Rh15  1  0.00000000  0.59745800  0.50000000  1
  Rh  Rh16  1  0.50000000  0.40254200  0.00000000  1
  Rh  Rh17  1  0.00000000  0.40254200  0.50000000  1
  Rh  Rh18  1  0.00000000  0.09745800  0.00000000  1
  Rh  Rh19  1  0.50000000  0.09745800  0.50000000  1
  O  O20  1  0.00000000  0.80551100  0.00000000  1
  O  O21  1  0.19115550  0.59671550  0.19119700  1
  O  O22  1  0.19115550  0.90328450  0.69119700  1
  O  O23  1  0.30884450  0.59671550  0.69119700  1
  O  O24  1  0.30884450  0.90328450  0.19119700  1
  O  O25  1  0.00000000  0.00000000  0.00000000  1
  O  O26  1  0.50000000  0.80551100  0.50000000  1
  O  O27  1  0.50000000  0.69448900  0.00000000  1
  O  O28  1  0.69115550  0.59671550  0.30880300  1
  O  O29  1  0.69115550  0.90328450  0.80880300  1
  O  O30  1  0.80884450  0.59671550  0.80880300  1
  O  O31  1  0.80884450  0.90328450  0.30880300  1
  O  O32  1  0.00000000  0.69448900  0.50000000  1
  O  O33  1  0.50000000  0.00000000  0.50000000  1
  O  O34  1  0.50000000  0.30551100  0.00000000  1
  O  O35  1  0.69115550  0.09671550  0.19119700  1
  O  O36  1  0.69115550  0.40328450  0.69119700  1
  O  O37  1  0.80884450  0.09671550  0.69119700  1
  O  O38  1  0.80884450  0.40328450  0.19119700  1
  O  O39  1  0.50000000  0.50000000  0.00000000  1
  O  O40  1  0.00000000  0.30551100  0.50000000  1
  O  O41  1  0.00000000  0.19448900  0.00000000  1
  O  O42  1  0.19115550  0.09671550  0.30880300  1
  O  O43  1  0.19115550  0.40328450  0.80880300  1
  O  O44  1  0.30884450  0.09671550  0.80880300  1
  O  O45  1  0.30884450  0.40328450  0.30880300  1
  O  O46  1  0.50000000  0.19448900  0.50000000  1
  O  O47  1  0.00000000  0.50000000  0.50000000  1
