# generated using pymatgen
data_Fe6O5F7
_symmetry_space_group_name_H-M   'P 1'
_cell_length_a   9.37936400
_cell_length_b   6.47972200
_cell_length_c   7.70320706
_cell_angle_alpha   90.00000000
_cell_angle_beta   115.24712730
_cell_angle_gamma   90.00000000
_symmetry_Int_Tables_number   1
_chemical_formula_structural   Fe6O5F7
_chemical_formula_sum   'Fe12 O10 F14'
_cell_volume   423.44658864
_cell_formula_units_Z   2
loop_
 _symmetry_equiv_pos_site_id
 _symmetry_equiv_pos_as_xyz
  1  'x, y, z'
loop_
 _atom_site_type_symbol
 _atom_site_label
 _atom_site_symmetry_multiplicity
 _atom_site_fract_x
 _atom_site_fract_y
 _atom_site_fract_z
 _atom_site_occupancy
  Fe  Fe0  1  0.00000000  0.33112100  0.50000000  1
  Fe  Fe1  1  0.16810200  0.82727000  0.66912100  1
  Fe  Fe2  1  0.00000000  0.35703600  0.00000000  1
  Fe  Fe3  1  0.17414850  0.82228750  0.17273700  1
  Fe  Fe4  1  0.82585150  0.82228750  0.82726300  1
  Fe  Fe5  1  0.83189800  0.82727000  0.33087900  1
  Fe  Fe6  1  0.50000000  0.83112100  0.50000000  1
  Fe  Fe7  1  0.66810200  0.32727000  0.66912100  1
  Fe  Fe8  1  0.50000000  0.85703600  0.00000000  1
  Fe  Fe9  1  0.67414850  0.32228750  0.17273700  1
  Fe  Fe10  1  0.32585150  0.32228750  0.82726300  1
  Fe  Fe11  1  0.33189800  0.32727000  0.33087900  1
  O  O12  1  0.16726100  0.53019700  0.66891400  1
  O  O13  1  0.00000000  0.66304600  0.00000000  1
  O  O14  1  0.66443300  0.62725100  0.66581900  1
  O  O15  1  0.33556700  0.62725100  0.33418100  1
  O  O16  1  0.83273900  0.53019700  0.33108600  1
  O  O17  1  0.66726100  0.03019700  0.66891400  1
  O  O18  1  0.50000000  0.16304600  0.00000000  1
  O  O19  1  0.16443300  0.12725100  0.66581900  1
  O  O20  1  0.83556700  0.12725100  0.33418100  1
  O  O21  1  0.33273900  0.03019700  0.33108600  1
  F  F22  1  0.00000000  0.04187400  0.00000000  1
  F  F23  1  0.23922700  0.33466600  0.03825300  1
  F  F24  1  0.06459350  0.83128350  0.37274000  1
  F  F25  1  0.89369450  0.33050750  0.69464000  1
  F  F26  1  0.10630550  0.33050750  0.30536000  1
  F  F27  1  0.76077300  0.33466600  0.96174700  1
  F  F28  1  0.93540650  0.83128350  0.62726000  1
  F  F29  1  0.50000000  0.54187400  0.00000000  1
  F  F30  1  0.73922700  0.83466600  0.03825300  1
  F  F31  1  0.56459350  0.33128350  0.37274000  1
  F  F32  1  0.39369450  0.83050750  0.69464000  1
  F  F33  1  0.60630550  0.83050750  0.30536000  1
  F  F34  1  0.26077300  0.83466600  0.96174700  1
  F  F35  1  0.43540650  0.33128350  0.62726000  1
