# generated using pymatgen
data_LiCo6O7
_symmetry_space_group_name_H-M   'P 1'
_cell_length_a   7.92808919
_cell_length_b   7.92808919
_cell_length_c   7.41819523
_cell_angle_alpha   90.00000000
_cell_angle_beta   90.00000000
_cell_angle_gamma   120.00000000
_symmetry_Int_Tables_number   1
_chemical_formula_structural   LiCo6O7
_chemical_formula_sum   'Li3 Co18 O21'
_cell_volume   403.79965664
_cell_formula_units_Z   3
loop_
 _symmetry_equiv_pos_site_id
 _symmetry_equiv_pos_as_xyz
  1  'x, y, z'
loop_
 _atom_site_type_symbol
 _atom_site_label
 _atom_site_symmetry_multiplicity
 _atom_site_fract_x
 _atom_site_fract_y
 _atom_site_fract_z
 _atom_site_occupancy
  Li  Li0  1  0.00000000  0.00000000  0.00000000  1
  Li  Li1  1  0.66666667  0.33333333  0.33333333  1
  Li  Li2  1  0.33333333  0.66666667  0.66666667  1
  Co  Co3  1  0.80902800  0.04839300  0.33126700  1
  Co  Co4  1  0.23936500  0.19097200  0.33126700  1
  Co  Co5  1  0.04839300  0.23936500  0.66873300  1
  Co  Co6  1  0.95160700  0.76063500  0.33126700  1
  Co  Co7  1  0.19097200  0.95160700  0.66873300  1
  Co  Co8  1  0.76063500  0.80902800  0.66873300  1
  Co  Co9  1  0.47569467  0.38172633  0.66460033  1
  Co  Co10  1  0.90603167  0.52430533  0.66460033  1
  Co  Co11  1  0.71505967  0.57269833  0.00206633  1
  Co  Co12  1  0.61827367  0.09396833  0.66460033  1
  Co  Co13  1  0.85763867  0.28494033  0.00206633  1
  Co  Co14  1  0.42730167  0.14236133  0.00206633  1
  Co  Co15  1  0.14236133  0.71505967  0.99793367  1
  Co  Co16  1  0.57269833  0.85763867  0.99793367  1
  Co  Co17  1  0.38172633  0.90603167  0.33539967  1
  Co  Co18  1  0.28494033  0.42730167  0.99793367  1
  Co  Co19  1  0.52430533  0.61827367  0.33539967  1
  Co  Co20  1  0.09396833  0.47569467  0.33539967  1
  O  O21  1  0.28465667  0.42342933  0.49482333  1
  O  O22  1  0.00000000  0.00000000  0.50000000  1
  O  O23  1  0.86122733  0.28465667  0.50517667  1
  O  O24  1  0.71534333  0.57657067  0.50517667  1
  O  O25  1  0.42342933  0.13877267  0.50517667  1
  O  O26  1  0.57657067  0.86122733  0.49482333  1
  O  O27  1  0.13877267  0.71534333  0.49482333  1
  O  O28  1  0.95132333  0.75676267  0.82815667  1
  O  O29  1  0.66666667  0.33333333  0.83333333  1
  O  O30  1  0.52789400  0.61799000  0.83851000  1
  O  O31  1  0.38201000  0.90990400  0.83851000  1
  O  O32  1  0.09009600  0.47210600  0.83851000  1
  O  O33  1  0.24323733  0.19456067  0.82815667  1
  O  O34  1  0.80543933  0.04867667  0.82815667  1
  O  O35  1  0.61799000  0.09009600  0.16149000  1
  O  O36  1  0.33333333  0.66666667  0.16666667  1
  O  O37  1  0.19456067  0.95132333  0.17184333  1
  O  O38  1  0.04867667  0.24323733  0.17184333  1
  O  O39  1  0.75676267  0.80543933  0.17184333  1
  O  O40  1  0.90990400  0.52789400  0.16149000  1
  O  O41  1  0.47210600  0.38201000  0.16149000  1
