# generated using pymatgen
data_LiMn2(PO4)2
_symmetry_space_group_name_H-M   'P 1'
_cell_length_a   12.21439200
_cell_length_b   12.31868600
_cell_length_c   6.71605028
_cell_angle_alpha   90.00000000
_cell_angle_beta   117.29955387
_cell_angle_gamma   90.00000000
_symmetry_Int_Tables_number   1
_chemical_formula_structural   LiMn2(PO4)2
_chemical_formula_sum   'Li6 Mn12 P12 O48'
_cell_volume   897.97998030
_cell_formula_units_Z   6
loop_
 _symmetry_equiv_pos_site_id
 _symmetry_equiv_pos_as_xyz
  1  'x, y, z'
loop_
 _atom_site_type_symbol
 _atom_site_label
 _atom_site_symmetry_multiplicity
 _atom_site_fract_x
 _atom_site_fract_y
 _atom_site_fract_z
 _atom_site_occupancy
  Li  Li0  1  0.49918650  0.00014150  0.24935000  1
  Li  Li1  1  0.50000000  0.51164900  0.00000000  1
  Li  Li2  1  0.50081350  0.00014150  0.75065000  1
  Li  Li3  1  0.99918650  0.50014150  0.24935000  1
  Li  Li4  1  0.00000000  0.01164900  0.00000000  1
  Li  Li5  1  0.00081350  0.50014150  0.75065000  1
  Mn  Mn6  1  0.77794650  0.84305750  0.11180500  1
  Mn  Mn7  1  0.50000000  0.76441800  0.50000000  1
  Mn  Mn8  1  0.77469950  0.15980050  0.60345100  1
  Mn  Mn9  1  0.22205350  0.84305750  0.88819500  1
  Mn  Mn10  1  0.50000000  0.22996000  0.00000000  1
  Mn  Mn11  1  0.22530050  0.15980050  0.39654900  1
  Mn  Mn12  1  0.27794650  0.34305750  0.11180500  1
  Mn  Mn13  1  0.00000000  0.26441800  0.50000000  1
  Mn  Mn14  1  0.27469950  0.65980050  0.60345100  1
  Mn  Mn15  1  0.72205350  0.34305750  0.88819500  1
  Mn  Mn16  1  0.00000000  0.72996000  0.00000000  1
  Mn  Mn17  1  0.72530050  0.65980050  0.39654900  1
  P  P18  1  0.76210400  0.10917500  0.11908000  1
  P  P19  1  0.50000000  0.20952900  0.50000000  1
  P  P20  1  0.76376000  0.89274800  0.62483100  1
  P  P21  1  0.23789600  0.10917500  0.88092000  1
  P  P22  1  0.50000000  0.78998000  0.00000000  1
  P  P23  1  0.23624000  0.89274800  0.37516900  1
  P  P24  1  0.26210400  0.60917500  0.11908000  1
  P  P25  1  0.00000000  0.70952900  0.50000000  1
  P  P26  1  0.26376000  0.39274800  0.62483100  1
  P  P27  1  0.73789600  0.60917500  0.88092000  1
  P  P28  1  0.00000000  0.28998000  0.00000000  1
  P  P29  1  0.73624000  0.39274800  0.37516900  1
  O  O30  1  0.82403500  0.99909100  0.12025900  1
  O  O31  1  0.54810050  0.28069550  0.71421200  1
  O  O32  1  0.77491000  0.18252100  0.93867200  1
  O  O33  1  0.40470300  0.12954200  0.51515300  1
  O  O34  1  0.37448700  0.90348700  0.44032800  1
  O  O35  1  0.33489550  0.66538150  0.34923700  1
  O  O36  1  0.66510450  0.66538150  0.65076300  1
  O  O37  1  0.62551300  0.90348700  0.55967200  1
  O  O38  1  0.59529700  0.12954200  0.48484700  1
  O  O39  1  0.22509000  0.18252100  0.06132800  1
  O  O40  1  0.45189950  0.28069550  0.28578800  1
  O  O41  1  0.82741550  0.00444650  0.64972200  1
  O  O42  1  0.17596500  0.99909100  0.87974100  1
  O  O43  1  0.54743500  0.71613800  0.21146500  1
  O  O44  1  0.77631100  0.82115700  0.44113000  1
  O  O45  1  0.40409300  0.86986200  0.01351500  1
  O  O46  1  0.37511100  0.09514800  0.94195400  1
  O  O47  1  0.33987150  0.33563750  0.85433000  1
  O  O48  1  0.66012850  0.33563750  0.14567000  1
  O  O49  1  0.62488900  0.09514800  0.05804600  1
  O  O50  1  0.59590700  0.86986200  0.98648500  1
  O  O51  1  0.22368900  0.82115700  0.55887000  1
  O  O52  1  0.45256500  0.71613800  0.78853500  1
  O  O53  1  0.17258450  0.00444650  0.35027800  1
  O  O54  1  0.32403500  0.49909100  0.12025900  1
  O  O55  1  0.04810050  0.78069550  0.71421200  1
  O  O56  1  0.27491000  0.68252100  0.93867200  1
  O  O57  1  0.90470300  0.62954200  0.51515300  1
  O  O58  1  0.87448700  0.40348700  0.44032800  1
  O  O59  1  0.83489550  0.16538150  0.34923700  1
  O  O60  1  0.16510450  0.16538150  0.65076300  1
  O  O61  1  0.12551300  0.40348700  0.55967200  1
  O  O62  1  0.09529700  0.62954200  0.48484700  1
  O  O63  1  0.72509000  0.68252100  0.06132800  1
  O  O64  1  0.95189950  0.78069550  0.28578800  1
  O  O65  1  0.32741550  0.50444650  0.64972200  1
  O  O66  1  0.67596500  0.49909100  0.87974100  1
  O  O67  1  0.04743500  0.21613800  0.21146500  1
  O  O68  1  0.27631100  0.32115700  0.44113000  1
  O  O69  1  0.90409300  0.36986200  0.01351500  1
  O  O70  1  0.87511100  0.59514800  0.94195400  1
  O  O71  1  0.83987150  0.83563750  0.85433000  1
  O  O72  1  0.16012850  0.83563750  0.14567000  1
  O  O73  1  0.12488900  0.59514800  0.05804600  1
  O  O74  1  0.09590700  0.36986200  0.98648500  1
  O  O75  1  0.72368900  0.32115700  0.55887000  1
  O  O76  1  0.95256500  0.21613800  0.78853500  1
  O  O77  1  0.67258450  0.50444650  0.35027800  1
