# generated using pymatgen
data_Li2V2F7
_symmetry_space_group_name_H-M   'P 1'
_cell_length_a   7.12567400
_cell_length_b   7.56437400
_cell_length_c   10.45129000
_cell_angle_alpha   90.00000000
_cell_angle_beta   90.00000000
_cell_angle_gamma   90.00000000
_symmetry_Int_Tables_number   1
_chemical_formula_structural   Li2V2F7
_chemical_formula_sum   'Li8 V8 F28'
_cell_volume   563.33773242
_cell_formula_units_Z   4
loop_
 _symmetry_equiv_pos_site_id
 _symmetry_equiv_pos_as_xyz
  1  'x, y, z'
loop_
 _atom_site_type_symbol
 _atom_site_label
 _atom_site_symmetry_multiplicity
 _atom_site_fract_x
 _atom_site_fract_y
 _atom_site_fract_z
 _atom_site_occupancy
  Li  Li0  1  0.75000000  0.25000000  0.75000000  1
  Li  Li1  1  0.50000000  0.50000000  0.00000000  1
  Li  Li2  1  0.00000000  0.00000000  0.00000000  1
  Li  Li3  1  0.25000000  0.25000000  0.25000000  1
  Li  Li4  1  0.25000000  0.75000000  0.25000000  1
  Li  Li5  1  0.00000000  0.00000000  0.50000000  1
  Li  Li6  1  0.50000000  0.50000000  0.50000000  1
  Li  Li7  1  0.75000000  0.75000000  0.75000000  1
  V  V8  1  0.25000000  0.25000000  0.75000000  1
  V  V9  1  0.00000000  0.50000000  0.00000000  1
  V  V10  1  0.50000000  0.00000000  0.00000000  1
  V  V11  1  0.75000000  0.25000000  0.25000000  1
  V  V12  1  0.75000000  0.75000000  0.25000000  1
  V  V13  1  0.50000000  0.00000000  0.50000000  1
  V  V14  1  0.00000000  0.50000000  0.50000000  1
  V  V15  1  0.25000000  0.75000000  0.75000000  1
  F  F16  1  0.65779000  0.50000000  0.25000000  1
  F  F17  1  0.26146800  0.50000000  0.41861700  1
  F  F18  1  0.95877250  0.29356250  0.12251350  1
  F  F19  1  0.54122750  0.79356250  0.12251350  1
  F  F20  1  0.54122750  0.20643750  0.12251350  1
  F  F21  1  0.95877250  0.70643750  0.12251350  1
  F  F22  1  0.73853200  0.50000000  0.91861700  1
  F  F23  1  0.26146800  0.50000000  0.08138300  1
  F  F24  1  0.04122750  0.29356250  0.87748650  1
  F  F25  1  0.45877250  0.79356250  0.87748650  1
  F  F26  1  0.45877250  0.20643750  0.87748650  1
  F  F27  1  0.04122750  0.70643750  0.87748650  1
  F  F28  1  0.73853200  0.50000000  0.58138300  1
  F  F29  1  0.34221000  0.50000000  0.75000000  1
  F  F30  1  0.15779000  0.00000000  0.75000000  1
  F  F31  1  0.76146800  0.00000000  0.91861700  1
  F  F32  1  0.45877250  0.79356250  0.62251350  1
  F  F33  1  0.04122750  0.29356250  0.62251350  1
  F  F34  1  0.04122750  0.70643750  0.62251350  1
  F  F35  1  0.45877250  0.20643750  0.62251350  1
  F  F36  1  0.23853200  0.00000000  0.41861700  1
  F  F37  1  0.76146800  0.00000000  0.58138300  1
  F  F38  1  0.54122750  0.79356250  0.37748650  1
  F  F39  1  0.95877250  0.29356250  0.37748650  1
  F  F40  1  0.95877250  0.70643750  0.37748650  1
  F  F41  1  0.54122750  0.20643750  0.37748650  1
  F  F42  1  0.23853200  0.00000000  0.08138300  1
  F  F43  1  0.84221000  0.00000000  0.25000000  1
