# generated using pymatgen
data_Li2Fe(CO3)2
_symmetry_space_group_name_H-M   'P 1'
_cell_length_a   8.38722993
_cell_length_b   5.39062936
_cell_length_c   6.05659826
_cell_angle_alpha   90.00000000
_cell_angle_beta   115.79106485
_cell_angle_gamma   90.00000000
_symmetry_Int_Tables_number   1
_chemical_formula_structural   Li2Fe(CO3)2
_chemical_formula_sum   'Li4 Fe2 C4 O12'
_cell_volume   246.55614320
_cell_formula_units_Z   2
loop_
 _symmetry_equiv_pos_site_id
 _symmetry_equiv_pos_as_xyz
  1  'x, y, z'
loop_
 _atom_site_type_symbol
 _atom_site_label
 _atom_site_symmetry_multiplicity
 _atom_site_fract_x
 _atom_site_fract_y
 _atom_site_fract_z
 _atom_site_occupancy
  Li  Li0  1  0.75000000  0.25000000  0.00000000  1
  Li  Li1  1  0.75000000  0.75000000  0.00000000  1
  Li  Li2  1  0.25000000  0.75000000  0.00000000  1
  Li  Li3  1  0.25000000  0.25000000  0.00000000  1
  Fe  Fe4  1  0.50000000  0.50000000  0.50000000  1
  Fe  Fe5  1  0.00000000  0.00000000  0.50000000  1
  C  C6  1  0.08053850  0.50000000  0.25937700  1
  C  C7  1  0.91946150  0.50000000  0.74062300  1
  C  C8  1  0.58053850  0.00000000  0.25937700  1
  C  C9  1  0.41946150  0.00000000  0.74062300  1
  O  O10  1  0.22821950  0.50000000  0.23366700  1
  O  O11  1  0.77178050  0.50000000  0.76633300  1
  O  O12  1  0.00534050  0.29140750  0.26071350  1
  O  O13  1  0.00534050  0.70859250  0.26071350  1
  O  O14  1  0.99465950  0.29140750  0.73928650  1
  O  O15  1  0.99465950  0.70859250  0.73928650  1
  O  O16  1  0.72821950  0.00000000  0.23366700  1
  O  O17  1  0.27178050  0.00000000  0.76633300  1
  O  O18  1  0.50534050  0.79140750  0.26071350  1
  O  O19  1  0.50534050  0.20859250  0.26071350  1
  O  O20  1  0.49465950  0.79140750  0.73928650  1
  O  O21  1  0.49465950  0.20859250  0.73928650  1
