# generated using pymatgen
data_LiFeSiO4
_symmetry_space_group_name_H-M   'P 1'
_cell_length_a   5.19677200
_cell_length_b   9.63650000
_cell_length_c   8.75983393
_cell_angle_alpha   90.00000000
_cell_angle_beta   90.06667630
_cell_angle_gamma   90.00000000
_symmetry_Int_Tables_number   1
_chemical_formula_structural   LiFeSiO4
_chemical_formula_sum   'Li4 Fe4 Si4 O16'
_cell_volume   438.68074046
_cell_formula_units_Z   4
loop_
 _symmetry_equiv_pos_site_id
 _symmetry_equiv_pos_as_xyz
  1  'x, y, z'
loop_
 _atom_site_type_symbol
 _atom_site_label
 _atom_site_symmetry_multiplicity
 _atom_site_fract_x
 _atom_site_fract_y
 _atom_site_fract_z
 _atom_site_occupancy
  Li  Li0  1  0.03910100  0.18581600  0.50740300  1
  Li  Li1  1  0.53910100  0.31418400  0.00740300  1
  Li  Li2  1  0.53910100  0.68581600  0.50740300  1
  Li  Li3  1  0.03910100  0.81418400  0.00740300  1
  Fe  Fe4  1  0.03282700  0.32987200  0.81832400  1
  Fe  Fe5  1  0.53282700  0.17012800  0.31832400  1
  Fe  Fe6  1  0.53282700  0.82987200  0.81832400  1
  Fe  Fe7  1  0.03282700  0.67012800  0.31832400  1
  Si  Si8  1  0.03280550  0.33206850  0.19389500  1
  Si  Si9  1  0.53280550  0.16793150  0.69389500  1
  Si  Si10  1  0.53280550  0.83206850  0.19389500  1
  Si  Si11  1  0.03280550  0.66793150  0.69389500  1
  O  O12  1  0.99675350  0.49101850  0.24947900  1
  O  O13  1  0.90566200  0.31205300  0.02219200  1
  O  O14  1  0.88517300  0.22657500  0.31436700  1
  O  O15  1  0.84119050  0.20871550  0.68841500  1
  O  O16  1  0.49675350  0.00898150  0.74947900  1
  O  O17  1  0.40566200  0.18794700  0.52219200  1
  O  O18  1  0.38517300  0.27342500  0.81436700  1
  O  O19  1  0.34119050  0.29128450  0.18841500  1
  O  O20  1  0.49675350  0.99101850  0.24947900  1
  O  O21  1  0.40566200  0.81205300  0.02219200  1
  O  O22  1  0.38517300  0.72657500  0.31436700  1
  O  O23  1  0.34119050  0.70871550  0.68841500  1
  O  O24  1  0.99675350  0.50898150  0.74947900  1
  O  O25  1  0.90566200  0.68794700  0.52219200  1
  O  O26  1  0.88517300  0.77342500  0.81436700  1
  O  O27  1  0.84119050  0.79128450  0.18841500  1
