# generated using pymatgen
data_Co2OF3
_symmetry_space_group_name_H-M   'P 1'
_cell_length_a   6.52473800
_cell_length_b   6.86468800
_cell_length_c   12.23669600
_cell_angle_alpha   90.00000000
_cell_angle_beta   90.00000000
_cell_angle_gamma   90.00000000
_symmetry_Int_Tables_number   1
_chemical_formula_structural   Co2OF3
_chemical_formula_sum   'Co16 O8 F24'
_cell_volume   548.08517046
_cell_formula_units_Z   8
loop_
 _symmetry_equiv_pos_site_id
 _symmetry_equiv_pos_as_xyz
  1  'x, y, z'
loop_
 _atom_site_type_symbol
 _atom_site_label
 _atom_site_symmetry_multiplicity
 _atom_site_fract_x
 _atom_site_fract_y
 _atom_site_fract_z
 _atom_site_occupancy
  Co  Co0  1  0.95976400  0.00000000  0.00000000  1
  Co  Co1  1  0.02255800  0.00000000  0.24946900  1
  Co  Co2  1  0.02417000  0.00000000  0.50000000  1
  Co  Co3  1  0.02255800  0.00000000  0.75053100  1
  Co  Co4  1  0.49226900  0.00000000  0.12487700  1
  Co  Co5  1  0.48873600  0.00000000  0.62556400  1
  Co  Co6  1  0.48873600  0.00000000  0.37443600  1
  Co  Co7  1  0.49226900  0.00000000  0.87512300  1
  Co  Co8  1  0.45976400  0.50000000  0.00000000  1
  Co  Co9  1  0.52255800  0.50000000  0.24946900  1
  Co  Co10  1  0.52417000  0.50000000  0.50000000  1
  Co  Co11  1  0.52255800  0.50000000  0.75053100  1
  Co  Co12  1  0.99226900  0.50000000  0.12487700  1
  Co  Co13  1  0.98873600  0.50000000  0.62556400  1
  Co  Co14  1  0.98873600  0.50000000  0.37443600  1
  Co  Co15  1  0.99226900  0.50000000  0.87512300  1
  O  O16  1  0.31854700  0.00000000  0.24849400  1
  O  O17  1  0.31854700  0.00000000  0.75150600  1
  O  O18  1  0.31653300  0.00000000  0.50000000  1
  O  O19  1  0.66339400  0.00000000  0.00000000  1
  O  O20  1  0.81854700  0.50000000  0.24849400  1
  O  O21  1  0.81854700  0.50000000  0.75150600  1
  O  O22  1  0.81653300  0.50000000  0.50000000  1
  O  O23  1  0.16339400  0.50000000  0.00000000  1
  F  F24  1  0.49173800  0.29807000  0.12529800  1
  F  F25  1  0.50870750  0.30428350  0.62183900  1
  F  F26  1  0.50870750  0.30428350  0.37816100  1
  F  F27  1  0.49173800  0.29807000  0.87470200  1
  F  F28  1  0.27767600  0.00000000  0.00000000  1
  F  F29  1  0.70616600  0.00000000  0.25147900  1
  F  F30  1  0.70012600  0.00000000  0.50000000  1
  F  F31  1  0.70616600  0.00000000  0.74852100  1
  F  F32  1  0.49173800  0.70193000  0.12529800  1
  F  F33  1  0.50870750  0.69571650  0.62183900  1
  F  F34  1  0.50870750  0.69571650  0.37816100  1
  F  F35  1  0.49173800  0.70193000  0.87470200  1
  F  F36  1  0.99173800  0.79807000  0.12529800  1
  F  F37  1  0.00870750  0.80428350  0.62183900  1
  F  F38  1  0.00870750  0.80428350  0.37816100  1
  F  F39  1  0.99173800  0.79807000  0.87470200  1
  F  F40  1  0.77767600  0.50000000  0.00000000  1
  F  F41  1  0.20616600  0.50000000  0.25147900  1
  F  F42  1  0.20012600  0.50000000  0.50000000  1
  F  F43  1  0.20616600  0.50000000  0.74852100  1
  F  F44  1  0.99173800  0.20193000  0.12529800  1
  F  F45  1  0.00870750  0.19571650  0.62183900  1
  F  F46  1  0.00870750  0.19571650  0.37816100  1
  F  F47  1  0.99173800  0.20193000  0.87470200  1
