# generated using pymatgen
data_Li4Cr3Cu3(WO8)2
_symmetry_space_group_name_H-M   'P 1'
_cell_length_a   10.37314959
_cell_length_b   5.88611662
_cell_length_c   9.78771643
_cell_angle_alpha   90.00000000
_cell_angle_beta   93.20308053
_cell_angle_gamma   90.00000000
_symmetry_Int_Tables_number   1
_chemical_formula_structural   Li4Cr3Cu3(WO8)2
_chemical_formula_sum   'Li8 Cr6 Cu6 W4 O32'
_cell_volume   596.68054737
_cell_formula_units_Z   2
loop_
 _symmetry_equiv_pos_site_id
 _symmetry_equiv_pos_as_xyz
  1  'x, y, z'
loop_
 _atom_site_type_symbol
 _atom_site_label
 _atom_site_symmetry_multiplicity
 _atom_site_fract_x
 _atom_site_fract_y
 _atom_site_fract_z
 _atom_site_occupancy
  Li  Li0  1  0.16371300  0.50000000  0.09135900  1
  Li  Li1  1  0.49742250  0.50000000  0.01056100  1
  Li  Li2  1  0.00380550  0.00000000  0.51658900  1
  Li  Li3  1  0.34487800  0.00000000  0.58838200  1
  Li  Li4  1  0.66371300  0.00000000  0.09135900  1
  Li  Li5  1  0.99742250  0.00000000  0.01056100  1
  Li  Li6  1  0.50380550  0.50000000  0.51658900  1
  Li  Li7  1  0.84487800  0.50000000  0.58838200  1
  Cr  Cr8  1  0.32930950  0.50000000  0.78416300  1
  Cr  Cr9  1  0.41392000  0.24645300  0.28577900  1
  Cr  Cr10  1  0.41392000  0.75354700  0.28577900  1
  Cr  Cr11  1  0.82930950  0.00000000  0.78416300  1
  Cr  Cr12  1  0.91392000  0.74645300  0.28577900  1
  Cr  Cr13  1  0.91392000  0.25354700  0.28577900  1
  Cu  Cu14  1  0.08378150  0.74625150  0.78801000  1
  Cu  Cu15  1  0.08378150  0.25374850  0.78801000  1
  Cu  Cu16  1  0.16757600  0.00000000  0.28778200  1
  Cu  Cu17  1  0.58378150  0.24625150  0.78801000  1
  Cu  Cu18  1  0.58378150  0.75374850  0.78801000  1
  Cu  Cu19  1  0.66757600  0.50000000  0.28778200  1
  W  W20  1  0.17768200  0.50000000  0.51271100  1
  W  W21  1  0.32642100  0.00000000  0.01503300  1
  W  W22  1  0.67768200  0.00000000  0.51271100  1
  W  W23  1  0.82642100  0.50000000  0.01503300  1
  O  O24  1  0.08136550  0.73810050  0.41518200  1
  O  O25  1  0.03243300  0.50000000  0.64886200  1
  O  O26  1  0.16647350  0.50000000  0.88051000  1
  O  O27  1  0.49960450  0.50000000  0.70460200  1
  O  O28  1  0.49959400  0.50000000  0.19677400  1
  O  O29  1  0.08136550  0.26189950  0.41518200  1
  O  O30  1  0.26114200  0.71646100  0.63899000  1
  O  O31  1  0.26114200  0.28353900  0.63899000  1
  O  O32  1  0.16002300  0.00000000  0.91647700  1
  O  O33  1  0.33022300  0.50000000  0.39788100  1
  O  O34  1  0.26075200  0.22576200  0.15168900  1
  O  O35  1  0.26075200  0.77423800  0.15168900  1
  O  O36  1  0.33275550  0.00000000  0.38545400  1
  O  O37  1  0.39454900  0.24653900  0.91831200  1
  O  O38  1  0.47837500  0.00000000  0.15898000  1
  O  O39  1  0.39454900  0.75346100  0.91831200  1
  O  O40  1  0.58136550  0.23810050  0.41518200  1
  O  O41  1  0.53243300  0.00000000  0.64886200  1
  O  O42  1  0.66647350  0.00000000  0.88051000  1
  O  O43  1  0.99960450  0.00000000  0.70460200  1
  O  O44  1  0.99959400  0.00000000  0.19677400  1
  O  O45  1  0.58136550  0.76189950  0.41518200  1
  O  O46  1  0.76114200  0.21646100  0.63899000  1
  O  O47  1  0.76114200  0.78353900  0.63899000  1
  O  O48  1  0.66002300  0.50000000  0.91647700  1
  O  O49  1  0.83022300  0.00000000  0.39788100  1
  O  O50  1  0.76075200  0.72576200  0.15168900  1
  O  O51  1  0.76075200  0.27423800  0.15168900  1
  O  O52  1  0.83275550  0.50000000  0.38545400  1
  O  O53  1  0.89454900  0.74653900  0.91831200  1
  O  O54  1  0.97837500  0.50000000  0.15898000  1
  O  O55  1  0.89454900  0.25346100  0.91831200  1
