# generated using pymatgen
data_VOF3
_symmetry_space_group_name_H-M   'P 1'
_cell_length_a   5.49012000
_cell_length_b   5.31313000
_cell_length_c   5.59420968
_cell_angle_alpha   90.00000000
_cell_angle_beta   119.76682171
_cell_angle_gamma   90.00000000
_symmetry_Int_Tables_number   1
_chemical_formula_structural   VOF3
_chemical_formula_sum   'V2 O2 F6'
_cell_volume   141.65023756
_cell_formula_units_Z   2
loop_
 _symmetry_equiv_pos_site_id
 _symmetry_equiv_pos_as_xyz
  1  'x, y, z'
loop_
 _atom_site_type_symbol
 _atom_site_label
 _atom_site_symmetry_multiplicity
 _atom_site_fract_x
 _atom_site_fract_y
 _atom_site_fract_z
 _atom_site_occupancy
  V  V0  1  0.00759500  0.72810400  0.06216200  1
  V  V1  1  0.00759500  0.27189600  0.56216200  1
  O  O2  1  0.07221300  0.45772300  0.82277300  1
  O  O3  1  0.07221300  0.54227700  0.32277300  1
  F  F4  1  0.92295900  0.97572500  0.66245100  1
  F  F5  1  0.65259700  0.66462100  0.81804300  1
  F  F6  1  0.92295900  0.02427500  0.16245100  1
  F  F7  1  0.34463700  0.16930100  0.63457000  1
  F  F8  1  0.65259700  0.33537900  0.31804300  1
  F  F9  1  0.34463700  0.83069900  0.13457000  1
