# generated using pymatgen
data_Na3FeAsCO7
_symmetry_space_group_name_H-M   'P 1'
_cell_length_a   5.30815261
_cell_length_b   6.84893800
_cell_length_c   9.24176013
_cell_angle_alpha   90.00000000
_cell_angle_beta   91.18025078
_cell_angle_gamma   90.00000000
_symmetry_Int_Tables_number   1
_chemical_formula_structural   Na3FeAsCO7
_chemical_formula_sum   'Na6 Fe2 As2 C2 O14'
_cell_volume   335.91483109
_cell_formula_units_Z   2
loop_
 _symmetry_equiv_pos_site_id
 _symmetry_equiv_pos_as_xyz
  1  'x, y, z'
loop_
 _atom_site_type_symbol
 _atom_site_label
 _atom_site_symmetry_multiplicity
 _atom_site_fract_x
 _atom_site_fract_y
 _atom_site_fract_z
 _atom_site_occupancy
  Na  Na0  1  0.23734100  0.75000000  0.07982025  1
  Na  Na1  1  0.76265900  0.25000000  0.92017975  1
  Na  Na2  1  0.75081450  0.99752000  0.25689225  1
  Na  Na3  1  0.75081450  0.50248000  0.25689225  1
  Na  Na4  1  0.24918550  0.49752000  0.74310775  1
  Na  Na5  1  0.24918550  0.00248000  0.74310775  1
  Fe  Fe6  1  0.21798100  0.25000000  0.34458675  1
  Fe  Fe7  1  0.78201900  0.75000000  0.65541325  1
  As  As8  1  0.30034750  0.75000000  0.41582525  1
  As  As9  1  0.69965250  0.25000000  0.58417475  1
  C  C10  1  0.27609500  0.25000000  0.05604275  1
  C  C11  1  0.72390500  0.75000000  0.94395725  1
  O  O12  1  0.70681400  0.75000000  0.08373725  1
  O  O13  1  0.29318600  0.25000000  0.91626275  1
  O  O14  1  0.05553250  0.25000000  0.11618975  1
  O  O15  1  0.94446750  0.75000000  0.88381025  1
  O  O16  1  0.47854750  0.25000000  0.13858275  1
  O  O17  1  0.52145250  0.75000000  0.86141725  1
  O  O18  1  0.62438500  0.75000000  0.44064325  1
  O  O19  1  0.37561500  0.25000000  0.55935675  1
  O  O20  1  0.83871500  0.25000000  0.41883825  1
  O  O21  1  0.16128500  0.75000000  0.58116175  1
  O  O22  1  0.21840550  0.94712600  0.30760075  1
  O  O23  1  0.21840550  0.55287400  0.30760075  1
  O  O24  1  0.78159450  0.44712600  0.69239925  1
  O  O25  1  0.78159450  0.05287400  0.69239925  1
