# generated using pymatgen
data_Li4Cu3Ni3(WO8)2
_symmetry_space_group_name_H-M   'P 1'
_cell_length_a   10.37295200
_cell_length_b   5.77878800
_cell_length_c   9.86205736
_cell_angle_alpha   90.00000000
_cell_angle_beta   93.80405826
_cell_angle_gamma   90.00000000
_symmetry_Int_Tables_number   1
_chemical_formula_structural   Li4Cu3Ni3(WO8)2
_chemical_formula_sum   'Li8 Cu6 Ni6 W4 O32'
_cell_volume   589.85973221
_cell_formula_units_Z   2
loop_
 _symmetry_equiv_pos_site_id
 _symmetry_equiv_pos_as_xyz
  1  'x, y, z'
loop_
 _atom_site_type_symbol
 _atom_site_label
 _atom_site_symmetry_multiplicity
 _atom_site_fract_x
 _atom_site_fract_y
 _atom_site_fract_z
 _atom_site_occupancy
  Li  Li0  1  0.66344800  0.00000000  0.09181200  1
  Li  Li1  1  0.99890300  0.00000000  0.01341500  1
  Li  Li2  1  0.50725700  0.50000000  0.51219500  1
  Li  Li3  1  0.84354100  0.50000000  0.58639900  1
  Li  Li4  1  0.16344800  0.50000000  0.09181200  1
  Li  Li5  1  0.49890300  0.50000000  0.01341500  1
  Li  Li6  1  0.00725700  0.00000000  0.51219500  1
  Li  Li7  1  0.34354100  0.00000000  0.58639900  1
  Cu  Cu8  1  0.58773050  0.74960850  0.78860400  1
  Cu  Cu9  1  0.58773050  0.25039150  0.78860400  1
  Cu  Cu10  1  0.66849600  0.50000000  0.28746600  1
  Cu  Cu11  1  0.08773050  0.24960850  0.78860400  1
  Cu  Cu12  1  0.08773050  0.75039150  0.78860400  1
  Cu  Cu13  1  0.16849600  0.00000000  0.28746600  1
  Ni  Ni14  1  0.82950400  0.00000000  0.78452500  1
  Ni  Ni15  1  0.91614900  0.25363500  0.28750200  1
  Ni  Ni16  1  0.91614900  0.74636500  0.28750200  1
  Ni  Ni17  1  0.32950400  0.50000000  0.78452500  1
  Ni  Ni18  1  0.41614900  0.75363500  0.28750200  1
  Ni  Ni19  1  0.41614900  0.24636500  0.28750200  1
  W  W20  1  0.68745400  0.00000000  0.51084000  1
  W  W21  1  0.83874700  0.50000000  0.02122000  1
  W  W22  1  0.18745400  0.50000000  0.51084000  1
  W  W23  1  0.33874700  0.00000000  0.02122000  1
  O  O24  1  0.58183650  0.75836350  0.41575300  1
  O  O25  1  0.53100300  0.00000000  0.66662000  1
  O  O26  1  0.66320200  0.00000000  0.88197400  1
  O  O27  1  0.50227500  0.50000000  0.70196400  1
  O  O28  1  0.50377400  0.50000000  0.20111500  1
  O  O29  1  0.58183650  0.24163650  0.41575300  1
  O  O30  1  0.75458100  0.77397500  0.63523500  1
  O  O31  1  0.75458100  0.22602500  0.63523500  1
  O  O32  1  0.65332400  0.50000000  0.90700800  1
  O  O33  1  0.82783100  0.00000000  0.40078600  1
  O  O34  1  0.75145250  0.28246950  0.14912300  1
  O  O35  1  0.75145250  0.71753050  0.14912300  1
  O  O36  1  0.82991700  0.50000000  0.38164200  1
  O  O37  1  0.89247150  0.25090450  0.92131400  1
  O  O38  1  0.98444100  0.50000000  0.14828100  1
  O  O39  1  0.89247150  0.74909550  0.92131400  1
  O  O40  1  0.08183650  0.25836350  0.41575300  1
  O  O41  1  0.03100300  0.50000000  0.66662000  1
  O  O42  1  0.16320200  0.50000000  0.88197400  1
  O  O43  1  0.00227500  0.00000000  0.70196400  1
  O  O44  1  0.00377400  0.00000000  0.20111500  1
  O  O45  1  0.08183650  0.74163650  0.41575300  1
  O  O46  1  0.25458100  0.27397500  0.63523500  1
  O  O47  1  0.25458100  0.72602500  0.63523500  1
  O  O48  1  0.15332400  0.00000000  0.90700800  1
  O  O49  1  0.32783100  0.50000000  0.40078600  1
  O  O50  1  0.25145250  0.78246950  0.14912300  1
  O  O51  1  0.25145250  0.21753050  0.14912300  1
  O  O52  1  0.32991700  0.00000000  0.38164200  1
  O  O53  1  0.39247150  0.75090450  0.92131400  1
  O  O54  1  0.48444100  0.00000000  0.14828100  1
  O  O55  1  0.39247150  0.24909550  0.92131400  1
