# generated using pymatgen
data_VF4
_symmetry_space_group_name_H-M   'P 1'
_cell_length_a   11.42919002
_cell_length_b   11.42919002
_cell_length_c   11.75622812
_cell_angle_alpha   90.00000000
_cell_angle_beta   90.00000000
_cell_angle_gamma   120.00000000
_symmetry_Int_Tables_number   1
_chemical_formula_structural   VF4
_chemical_formula_sum   'V18 F72'
_cell_volume   1329.93232783
_cell_formula_units_Z   18
loop_
 _symmetry_equiv_pos_site_id
 _symmetry_equiv_pos_as_xyz
  1  'x, y, z'
loop_
 _atom_site_type_symbol
 _atom_site_label
 _atom_site_symmetry_multiplicity
 _atom_site_fract_x
 _atom_site_fract_y
 _atom_site_fract_z
 _atom_site_occupancy
  V  V0  1  0.15872100  0.21157700  0.76083400  1
  V  V1  1  0.05285600  0.84127900  0.76083400  1
  V  V2  1  0.21157700  0.05285600  0.23916600  1
  V  V3  1  0.78842300  0.94714400  0.76083400  1
  V  V4  1  0.94714400  0.15872100  0.23916600  1
  V  V5  1  0.84127900  0.78842300  0.23916600  1
  V  V6  1  0.82538767  0.54491033  0.09416733  1
  V  V7  1  0.71952267  0.17461233  0.09416733  1
  V  V8  1  0.87824367  0.38618933  0.57249933  1
  V  V9  1  0.45508967  0.28047733  0.09416733  1
  V  V10  1  0.61381067  0.49205433  0.57249933  1
  V  V11  1  0.50794567  0.12175633  0.57249933  1
  V  V12  1  0.49205433  0.87824367  0.42750067  1
  V  V13  1  0.38618933  0.50794567  0.42750067  1
  V  V14  1  0.54491033  0.71952267  0.90583267  1
  V  V15  1  0.12175633  0.61381067  0.42750067  1
  V  V16  1  0.28047733  0.82538767  0.90583267  1
  V  V17  1  0.17461233  0.45508967  0.90583267  1
  F  F18  1  0.33059867  0.04306833  0.57093533  1
  F  F19  1  0.22087067  0.83175633  0.74627933  1
  F  F20  1  0.15052233  0.04121967  0.79652367  1
  F  F21  1  0.16824367  0.38911433  0.74627933  1
  F  F22  1  0.38911433  0.22087067  0.25372067  1
  F  F23  1  0.28753033  0.33059867  0.42906467  1
  F  F24  1  0.11560900  0.17164500  0.61762800  1
  F  F25  1  0.95878033  0.10930267  0.79652367  1
  F  F26  1  0.17164500  0.05603600  0.38237200  1
  F  F27  1  0.05603600  0.88439100  0.61762800  1
  F  F28  1  0.89069733  0.84947767  0.79652367  1
  F  F29  1  0.95693167  0.28753033  0.57093533  1
  F  F30  1  0.04306833  0.71246967  0.42906467  1
  F  F31  1  0.10930267  0.15052233  0.20347633  1
  F  F32  1  0.94396400  0.11560900  0.38237200  1
  F  F33  1  0.82835500  0.94396400  0.61762800  1
  F  F34  1  0.04121967  0.89069733  0.20347633  1
  F  F35  1  0.88439100  0.82835500  0.38237200  1
  F  F36  1  0.71246967  0.66940133  0.57093533  1
  F  F37  1  0.61088567  0.77912933  0.74627933  1
  F  F38  1  0.83175633  0.61088567  0.25372067  1
  F  F39  1  0.84947767  0.95878033  0.20347633  1
  F  F40  1  0.77912933  0.16824367  0.25372067  1
  F  F41  1  0.66940133  0.95693167  0.42906467  1
  F  F42  1  0.99726533  0.37640167  0.90426867  1
  F  F43  1  0.88753733  0.16508967  0.07961267  1
  F  F44  1  0.81718900  0.37455300  0.12985700  1
  F  F45  1  0.83491033  0.72244767  0.07961267  1
  F  F46  1  0.05578100  0.55420400  0.58705400  1
  F  F47  1  0.95419700  0.66393200  0.76239800  1
  F  F48  1  0.78227567  0.50497833  0.95096133  1
  F  F49  1  0.62544700  0.44263600  0.12985700  1
  F  F50  1  0.83831167  0.38936933  0.71570533  1
  F  F51  1  0.72270267  0.21772433  0.95096133  1
  F  F52  1  0.55736400  0.18281100  0.12985700  1
  F  F53  1  0.62359833  0.62086367  0.90426867  1
  F  F54  1  0.70973500  0.04580300  0.76239800  1
  F  F55  1  0.77596933  0.48385567  0.53680967  1
  F  F56  1  0.61063067  0.44894233  0.71570533  1
  F  F57  1  0.49502167  0.27729733  0.95096133  1
  F  F58  1  0.70788633  0.22403067  0.53680967  1
  F  F59  1  0.55105767  0.16168833  0.71570533  1
  F  F60  1  0.37913633  0.00273467  0.90426867  1
  F  F61  1  0.27755233  0.11246267  0.07961267  1
  F  F62  1  0.49842300  0.94421900  0.58705400  1
  F  F63  1  0.51614433  0.29211367  0.53680967  1
  F  F64  1  0.44579600  0.50157700  0.58705400  1
  F  F65  1  0.33606800  0.29026500  0.76239800  1
  F  F66  1  0.66393200  0.70973500  0.23760200  1
  F  F67  1  0.55420400  0.49842300  0.41294600  1
  F  F68  1  0.48385567  0.70788633  0.46319033  1
  F  F69  1  0.50157700  0.05578100  0.41294600  1
  F  F70  1  0.72244767  0.88753733  0.92038733  1
  F  F71  1  0.62086367  0.99726533  0.09573133  1
  F  F72  1  0.44894233  0.83831167  0.28429467  1
  F  F73  1  0.29211367  0.77596933  0.46319033  1
  F  F74  1  0.50497833  0.72270267  0.04903867  1
  F  F75  1  0.38936933  0.55105767  0.28429467  1
  F  F76  1  0.22403067  0.51614433  0.46319033  1
  F  F77  1  0.29026500  0.95419700  0.23760200  1
  F  F78  1  0.37640167  0.37913633  0.09573133  1
  F  F79  1  0.44263600  0.81718900  0.87014300  1
  F  F80  1  0.27729733  0.78227567  0.04903867  1
  F  F81  1  0.16168833  0.61063067  0.28429467  1
  F  F82  1  0.37455300  0.55736400  0.87014300  1
  F  F83  1  0.21772433  0.49502167  0.04903867  1
  F  F84  1  0.04580300  0.33606800  0.23760200  1
  F  F85  1  0.94421900  0.44579600  0.41294600  1
  F  F86  1  0.16508967  0.27755233  0.92038733  1
  F  F87  1  0.18281100  0.62544700  0.87014300  1
  F  F88  1  0.11246267  0.83491033  0.92038733  1
  F  F89  1  0.00273467  0.62359833  0.09573133  1
