# generated using pymatgen
data_Na6Cr2B4PO16
_symmetry_space_group_name_H-M   'P 1'
_cell_length_a   14.01217800
_cell_length_b   14.01217800
_cell_length_c   14.01217800
_cell_angle_alpha   90.00000000
_cell_angle_beta   90.00000000
_cell_angle_gamma   90.00000000
_symmetry_Int_Tables_number   1
_chemical_formula_structural   Na6Cr2B4PO16
_chemical_formula_sum   'Na48 Cr16 B32 P8 O128'
_cell_volume   2751.16689456
_cell_formula_units_Z   8
loop_
 _symmetry_equiv_pos_site_id
 _symmetry_equiv_pos_as_xyz
  1  'x, y, z'
loop_
 _atom_site_type_symbol
 _atom_site_label
 _atom_site_symmetry_multiplicity
 _atom_site_fract_x
 _atom_site_fract_y
 _atom_site_fract_z
 _atom_site_occupancy
  Na  Na0  1  0.21339200  0.00000000  0.50000000  1
  Na  Na1  1  0.00000000  0.21339200  0.50000000  1
  Na  Na2  1  0.00000000  0.00000000  0.71339200  1
  Na  Na3  1  0.00000000  0.00000000  0.28660800  1
  Na  Na4  1  0.96339200  0.75000000  0.75000000  1
  Na  Na5  1  0.75000000  0.96339200  0.75000000  1
  Na  Na6  1  0.00000000  0.78660800  0.50000000  1
  Na  Na7  1  0.78660800  0.00000000  0.50000000  1
  Na  Na8  1  0.25000000  0.75000000  0.46339200  1
  Na  Na9  1  0.25000000  0.75000000  0.03660800  1
  Na  Na10  1  0.53660800  0.75000000  0.75000000  1
  Na  Na11  1  0.25000000  0.03660800  0.75000000  1
  Na  Na12  1  0.21339200  0.50000000  0.00000000  1
  Na  Na13  1  0.00000000  0.71339200  0.00000000  1
  Na  Na14  1  0.00000000  0.50000000  0.21339200  1
  Na  Na15  1  0.00000000  0.50000000  0.78660800  1
  Na  Na16  1  0.96339200  0.25000000  0.25000000  1
  Na  Na17  1  0.75000000  0.46339200  0.25000000  1
  Na  Na18  1  0.00000000  0.28660800  0.00000000  1
  Na  Na19  1  0.78660800  0.50000000  0.00000000  1
  Na  Na20  1  0.25000000  0.25000000  0.96339200  1
  Na  Na21  1  0.25000000  0.25000000  0.53660800  1
  Na  Na22  1  0.53660800  0.25000000  0.25000000  1
  Na  Na23  1  0.25000000  0.53660800  0.25000000  1
  Na  Na24  1  0.71339200  0.00000000  0.00000000  1
  Na  Na25  1  0.50000000  0.21339200  0.00000000  1
  Na  Na26  1  0.50000000  0.00000000  0.21339200  1
  Na  Na27  1  0.50000000  0.00000000  0.78660800  1
  Na  Na28  1  0.46339200  0.75000000  0.25000000  1
  Na  Na29  1  0.25000000  0.96339200  0.25000000  1
  Na  Na30  1  0.50000000  0.78660800  0.00000000  1
  Na  Na31  1  0.28660800  0.00000000  0.00000000  1
  Na  Na32  1  0.75000000  0.75000000  0.96339200  1
  Na  Na33  1  0.75000000  0.75000000  0.53660800  1
  Na  Na34  1  0.03660800  0.75000000  0.25000000  1
  Na  Na35  1  0.75000000  0.03660800  0.25000000  1
  Na  Na36  1  0.71339200  0.50000000  0.50000000  1
  Na  Na37  1  0.50000000  0.71339200  0.50000000  1
  Na  Na38  1  0.50000000  0.50000000  0.71339200  1
  Na  Na39  1  0.50000000  0.50000000  0.28660800  1
  Na  Na40  1  0.46339200  0.25000000  0.75000000  1
  Na  Na41  1  0.25000000  0.46339200  0.75000000  1
  Na  Na42  1  0.50000000  0.28660800  0.50000000  1
  Na  Na43  1  0.28660800  0.50000000  0.50000000  1
  Na  Na44  1  0.75000000  0.25000000  0.46339200  1
  Na  Na45  1  0.75000000  0.25000000  0.03660800  1
  Na  Na46  1  0.03660800  0.25000000  0.75000000  1
  Na  Na47  1  0.75000000  0.53660800  0.75000000  1
  Cr  Cr48  1  0.37500000  0.87500000  0.62500000  1
  Cr  Cr49  1  0.12500000  0.87500000  0.87500000  1
  Cr  Cr50  1  0.87500000  0.12500000  0.87500000  1
  Cr  Cr51  1  0.62500000  0.12500000  0.62500000  1
  Cr  Cr52  1  0.37500000  0.37500000  0.12500000  1
  Cr  Cr53  1  0.12500000  0.37500000  0.37500000  1
  Cr  Cr54  1  0.87500000  0.62500000  0.37500000  1
  Cr  Cr55  1  0.62500000  0.62500000  0.12500000  1
  Cr  Cr56  1  0.87500000  0.87500000  0.12500000  1
  Cr  Cr57  1  0.62500000  0.87500000  0.37500000  1
  Cr  Cr58  1  0.37500000  0.12500000  0.37500000  1
  Cr  Cr59  1  0.12500000  0.12500000  0.12500000  1
  Cr  Cr60  1  0.87500000  0.37500000  0.62500000  1
  Cr  Cr61  1  0.62500000  0.37500000  0.87500000  1
  Cr  Cr62  1  0.37500000  0.62500000  0.87500000  1
  Cr  Cr63  1  0.12500000  0.62500000  0.62500000  1
  B  B64  1  0.91412733  0.91412733  0.91412733  1
  B  B65  1  0.08587267  0.91412733  0.08587267  1
  B  B66  1  0.91412733  0.08587267  0.08587267  1
  B  B67  1  0.08587267  0.08587267  0.91412733  1
  B  B68  1  0.66412733  0.16412733  0.83587267  1
  B  B69  1  0.83587267  0.16412733  0.66412733  1
  B  B70  1  0.16412733  0.83587267  0.66412733  1
  B  B71  1  0.33587267  0.83587267  0.83587267  1
  B  B72  1  0.91412733  0.41412733  0.41412733  1
  B  B73  1  0.08587267  0.41412733  0.58587267  1
  B  B74  1  0.91412733  0.58587267  0.58587267  1
  B  B75  1  0.08587267  0.58587267  0.41412733  1
  B  B76  1  0.66412733  0.66412733  0.33587267  1
  B  B77  1  0.83587267  0.66412733  0.16412733  1
  B  B78  1  0.16412733  0.33587267  0.16412733  1
  B  B79  1  0.33587267  0.33587267  0.33587267  1
  B  B80  1  0.41412733  0.91412733  0.41412733  1
  B  B81  1  0.58587267  0.91412733  0.58587267  1
  B  B82  1  0.41412733  0.08587267  0.58587267  1
  B  B83  1  0.58587267  0.08587267  0.41412733  1
  B  B84  1  0.16412733  0.16412733  0.33587267  1
  B  B85  1  0.33587267  0.16412733  0.16412733  1
  B  B86  1  0.66412733  0.83587267  0.16412733  1
  B  B87  1  0.83587267  0.83587267  0.33587267  1
  B  B88  1  0.41412733  0.41412733  0.91412733  1
  B  B89  1  0.58587267  0.41412733  0.08587267  1
  B  B90  1  0.41412733  0.58587267  0.08587267  1
  B  B91  1  0.58587267  0.58587267  0.91412733  1
  B  B92  1  0.16412733  0.66412733  0.83587267  1
  B  B93  1  0.33587267  0.66412733  0.66412733  1
  B  B94  1  0.66412733  0.33587267  0.66412733  1
  B  B95  1  0.83587267  0.33587267  0.83587267  1
  P  P96  1  0.75000000  0.75000000  0.75000000  1
  P  P97  1  0.00000000  0.00000000  0.50000000  1
  P  P98  1  0.75000000  0.25000000  0.25000000  1
  P  P99  1  0.00000000  0.50000000  0.00000000  1
  P  P100  1  0.25000000  0.75000000  0.25000000  1
  P  P101  1  0.50000000  0.00000000  0.00000000  1
  P  P102  1  0.25000000  0.25000000  0.75000000  1
  P  P103  1  0.50000000  0.50000000  0.50000000  1
  O  O104  1  0.18591433  0.18591433  0.68591433  1
  O  O105  1  0.81408567  0.18591433  0.31408567  1
  O  O106  1  0.18591433  0.81408567  0.31408567  1
  O  O107  1  0.81408567  0.81408567  0.68591433  1
  O  O108  1  0.85305450  0.89452050  0.98905700  1
  O  O109  1  0.98905700  0.85305450  0.89452050  1
  O  O110  1  0.01094300  0.85305450  0.10547950  1
  O  O111  1  0.89452050  0.98905700  0.85305450  1
  O  O112  1  0.89452050  0.01094300  0.14694550  1
  O  O113  1  0.85305450  0.10547950  0.01094300  1
  O  O114  1  0.14694550  0.89452050  0.01094300  1
  O  O115  1  0.10547950  0.98905700  0.14694550  1
  O  O116  1  0.10547950  0.01094300  0.85305450  1
  O  O117  1  0.98905700  0.14694550  0.10547950  1
  O  O118  1  0.01094300  0.14694550  0.89452050  1
  O  O119  1  0.60305450  0.14452050  0.76094300  1
  O  O120  1  0.14694550  0.10547950  0.98905700  1
  O  O121  1  0.73905700  0.10305450  0.85547950  1
  O  O122  1  0.76094300  0.10305450  0.64452050  1
  O  O123  1  0.64452050  0.23905700  0.89694550  1
  O  O124  1  0.14452050  0.76094300  0.60305450  1
  O  O125  1  0.10305450  0.85547950  0.73905700  1
  O  O126  1  0.89694550  0.14452050  0.73905700  1
  O  O127  1  0.85547950  0.23905700  0.60305450  1
  O  O128  1  0.35547950  0.76094300  0.89694550  1
  O  O129  1  0.23905700  0.89694550  0.64452050  1
  O  O130  1  0.26094300  0.89694550  0.85547950  1
  O  O131  1  0.39694550  0.85547950  0.76094300  1
  O  O132  1  0.93591433  0.93591433  0.56408567  1
  O  O133  1  0.93591433  0.06408567  0.43591433  1
  O  O134  1  0.06408567  0.93591433  0.43591433  1
  O  O135  1  0.06408567  0.06408567  0.56408567  1
  O  O136  1  0.18591433  0.68591433  0.18591433  1
  O  O137  1  0.81408567  0.68591433  0.81408567  1
  O  O138  1  0.18591433  0.31408567  0.81408567  1
  O  O139  1  0.81408567  0.31408567  0.18591433  1
  O  O140  1  0.85305450  0.39452050  0.48905700  1
  O  O141  1  0.98905700  0.35305450  0.39452050  1
  O  O142  1  0.01094300  0.35305450  0.60547950  1
  O  O143  1  0.89452050  0.48905700  0.35305450  1
  O  O144  1  0.89452050  0.51094300  0.64694550  1
  O  O145  1  0.85305450  0.60547950  0.51094300  1
  O  O146  1  0.14694550  0.39452050  0.51094300  1
  O  O147  1  0.10547950  0.48905700  0.64694550  1
  O  O148  1  0.10547950  0.51094300  0.35305450  1
  O  O149  1  0.98905700  0.64694550  0.60547950  1
  O  O150  1  0.01094300  0.64694550  0.39452050  1
  O  O151  1  0.60305450  0.64452050  0.26094300  1
  O  O152  1  0.14694550  0.60547950  0.48905700  1
  O  O153  1  0.73905700  0.60305450  0.35547950  1
  O  O154  1  0.76094300  0.60305450  0.14452050  1
  O  O155  1  0.64452050  0.73905700  0.39694550  1
  O  O156  1  0.14452050  0.26094300  0.10305450  1
  O  O157  1  0.10305450  0.35547950  0.23905700  1
  O  O158  1  0.89694550  0.64452050  0.23905700  1
  O  O159  1  0.85547950  0.73905700  0.10305450  1
  O  O160  1  0.35547950  0.26094300  0.39694550  1
  O  O161  1  0.23905700  0.39694550  0.14452050  1
  O  O162  1  0.26094300  0.39694550  0.35547950  1
  O  O163  1  0.39694550  0.35547950  0.26094300  1
  O  O164  1  0.93591433  0.43591433  0.06408567  1
  O  O165  1  0.93591433  0.56408567  0.93591433  1
  O  O166  1  0.06408567  0.43591433  0.93591433  1
  O  O167  1  0.06408567  0.56408567  0.06408567  1
  O  O168  1  0.68591433  0.18591433  0.18591433  1
  O  O169  1  0.31408567  0.18591433  0.81408567  1
  O  O170  1  0.68591433  0.81408567  0.81408567  1
  O  O171  1  0.31408567  0.81408567  0.18591433  1
  O  O172  1  0.35305450  0.89452050  0.48905700  1
  O  O173  1  0.48905700  0.85305450  0.39452050  1
  O  O174  1  0.51094300  0.85305450  0.60547950  1
  O  O175  1  0.39452050  0.98905700  0.35305450  1
  O  O176  1  0.39452050  0.01094300  0.64694550  1
  O  O177  1  0.35305450  0.10547950  0.51094300  1
  O  O178  1  0.64694550  0.89452050  0.51094300  1
  O  O179  1  0.60547950  0.98905700  0.64694550  1
  O  O180  1  0.60547950  0.01094300  0.35305450  1
  O  O181  1  0.48905700  0.14694550  0.60547950  1
  O  O182  1  0.51094300  0.14694550  0.39452050  1
  O  O183  1  0.10305450  0.14452050  0.26094300  1
  O  O184  1  0.64694550  0.10547950  0.48905700  1
  O  O185  1  0.23905700  0.10305450  0.35547950  1
  O  O186  1  0.26094300  0.10305450  0.14452050  1
  O  O187  1  0.14452050  0.23905700  0.39694550  1
  O  O188  1  0.64452050  0.76094300  0.10305450  1
  O  O189  1  0.60305450  0.85547950  0.23905700  1
  O  O190  1  0.39694550  0.14452050  0.23905700  1
  O  O191  1  0.35547950  0.23905700  0.10305450  1
  O  O192  1  0.85547950  0.76094300  0.39694550  1
  O  O193  1  0.73905700  0.89694550  0.14452050  1
  O  O194  1  0.76094300  0.89694550  0.35547950  1
  O  O195  1  0.89694550  0.85547950  0.26094300  1
  O  O196  1  0.43591433  0.93591433  0.06408567  1
  O  O197  1  0.43591433  0.06408567  0.93591433  1
  O  O198  1  0.56408567  0.93591433  0.93591433  1
  O  O199  1  0.56408567  0.06408567  0.06408567  1
  O  O200  1  0.68591433  0.68591433  0.68591433  1
  O  O201  1  0.31408567  0.68591433  0.31408567  1
  O  O202  1  0.68591433  0.31408567  0.31408567  1
  O  O203  1  0.31408567  0.31408567  0.68591433  1
  O  O204  1  0.35305450  0.39452050  0.98905700  1
  O  O205  1  0.48905700  0.35305450  0.89452050  1
  O  O206  1  0.51094300  0.35305450  0.10547950  1
  O  O207  1  0.39452050  0.48905700  0.85305450  1
  O  O208  1  0.39452050  0.51094300  0.14694550  1
  O  O209  1  0.35305450  0.60547950  0.01094300  1
  O  O210  1  0.64694550  0.39452050  0.01094300  1
  O  O211  1  0.60547950  0.48905700  0.14694550  1
  O  O212  1  0.60547950  0.51094300  0.85305450  1
  O  O213  1  0.48905700  0.64694550  0.10547950  1
  O  O214  1  0.51094300  0.64694550  0.89452050  1
  O  O215  1  0.10305450  0.64452050  0.76094300  1
  O  O216  1  0.64694550  0.60547950  0.98905700  1
  O  O217  1  0.23905700  0.60305450  0.85547950  1
  O  O218  1  0.26094300  0.60305450  0.64452050  1
  O  O219  1  0.14452050  0.73905700  0.89694550  1
  O  O220  1  0.64452050  0.26094300  0.60305450  1
  O  O221  1  0.60305450  0.35547950  0.73905700  1
  O  O222  1  0.39694550  0.64452050  0.73905700  1
  O  O223  1  0.35547950  0.73905700  0.60305450  1
  O  O224  1  0.85547950  0.26094300  0.89694550  1
  O  O225  1  0.73905700  0.39694550  0.64452050  1
  O  O226  1  0.76094300  0.39694550  0.85547950  1
  O  O227  1  0.89694550  0.35547950  0.76094300  1
  O  O228  1  0.43591433  0.43591433  0.56408567  1
  O  O229  1  0.43591433  0.56408567  0.43591433  1
  O  O230  1  0.56408567  0.43591433  0.43591433  1
  O  O231  1  0.56408567  0.56408567  0.56408567  1
