# generated using pymatgen
data_Mn3Fe2P6WO24
_symmetry_space_group_name_H-M   'P 1'
_cell_length_a   8.80228225
_cell_length_b   8.80228225
_cell_length_c   21.01563795
_cell_angle_alpha   90.00000000
_cell_angle_beta   90.00000000
_cell_angle_gamma   120.00000000
_symmetry_Int_Tables_number   1
_chemical_formula_structural   Mn3Fe2P6WO24
_chemical_formula_sum   'Mn9 Fe6 P18 W3 O72'
_cell_volume   1410.14506006
_cell_formula_units_Z   3
loop_
 _symmetry_equiv_pos_site_id
 _symmetry_equiv_pos_as_xyz
  1  'x, y, z'
loop_
 _atom_site_type_symbol
 _atom_site_label
 _atom_site_symmetry_multiplicity
 _atom_site_fract_x
 _atom_site_fract_y
 _atom_site_fract_z
 _atom_site_occupancy
  Mn  Mn0  1  0.00000000  0.00000000  0.64776200  1
  Mn  Mn1  1  0.00000000  0.00000000  0.85260600  1
  Mn  Mn2  1  0.00000000  0.00000000  0.35400300  1
  Mn  Mn3  1  0.66666667  0.33333333  0.98109533  1
  Mn  Mn4  1  0.66666667  0.33333333  0.18593933  1
  Mn  Mn5  1  0.66666667  0.33333333  0.68733633  1
  Mn  Mn6  1  0.33333333  0.66666667  0.31442867  1
  Mn  Mn7  1  0.33333333  0.66666667  0.51927267  1
  Mn  Mn8  1  0.33333333  0.66666667  0.02066967  1
  Fe  Fe9  1  0.00000000  0.00000000  0.99068300  1
  Fe  Fe10  1  0.00000000  0.00000000  0.49921233  1
  Fe  Fe11  1  0.66666667  0.33333333  0.32401633  1
  Fe  Fe12  1  0.66666667  0.33333333  0.83254567  1
  Fe  Fe13  1  0.33333333  0.66666667  0.65734967  1
  Fe  Fe14  1  0.33333333  0.66666667  0.16587900  1
  P  P15  1  0.66972367  0.03501333  0.58326333  1
  P  P16  1  0.36528967  0.33027633  0.58326333  1
  P  P17  1  0.96498667  0.63471033  0.58326333  1
  P  P18  1  0.03836000  0.36426700  0.41932500  1
  P  P19  1  0.63573300  0.67409300  0.41932500  1
  P  P20  1  0.32590700  0.96164000  0.41932500  1
  P  P21  1  0.33639033  0.36834667  0.91659667  1
  P  P22  1  0.03195633  0.66360967  0.91659667  1
  P  P23  1  0.63165333  0.96804367  0.91659667  1
  P  P24  1  0.70502667  0.69760033  0.75265833  1
  P  P25  1  0.30239967  0.00742633  0.75265833  1
  P  P26  1  0.99257367  0.29497333  0.75265833  1
  P  P27  1  0.00305700  0.70168000  0.24993000  1
  P  P28  1  0.69862300  0.99694300  0.24993000  1
  P  P29  1  0.29832000  0.30137700  0.24993000  1
  P  P30  1  0.37169333  0.03093367  0.08599167  1
  P  P31  1  0.96906633  0.34075967  0.08599167  1
  P  P32  1  0.65924033  0.62830667  0.08599167  1
  W  W33  1  0.00000000  0.00000000  0.14259400  1
  W  W34  1  0.66666667  0.33333333  0.47592733  1
  W  W35  1  0.33333333  0.66666667  0.80926067  1
  O  O36  1  0.78609033  0.98226767  0.30899967  1
  O  O37  1  0.19617733  0.21390967  0.30899967  1
  O  O38  1  0.01773233  0.80382267  0.30899967  1
  O  O39  1  0.50448500  0.85119800  0.58907600  1
  O  O40  1  0.98384000  0.80987100  0.19121400  1
  O  O41  1  0.83387433  0.02246767  0.56486967  1
  O  O42  1  0.34671300  0.49551500  0.58907600  1
  O  O43  1  0.18859333  0.16612567  0.56486967  1
  O  O44  1  0.12680933  0.46570967  0.47894267  1
  O  O45  1  0.97753233  0.81140667  0.56486967  1
  O  O46  1  0.83850533  0.33415467  0.41560267  1
  O  O47  1  0.53429033  0.66109967  0.47894267  1
  O  O48  1  0.82603100  0.01616000  0.19121400  1
  O  O49  1  0.14880200  0.65328700  0.58907600  1
  O  O50  1  0.00671933  0.17443367  0.42926767  1
  O  O51  1  0.19012900  0.17396900  0.19121400  1
  O  O52  1  0.82556633  0.83228567  0.42926767  1
  O  O53  1  0.66584533  0.50435067  0.41560267  1
  O  O54  1  0.16771433  0.99328067  0.42926767  1
  O  O55  1  0.33890033  0.87319067  0.47894267  1
  O  O56  1  0.49564933  0.16149467  0.41560267  1
  O  O57  1  0.00110100  0.21555900  0.69048200  1
  O  O58  1  0.78444100  0.78554200  0.69048200  1
  O  O59  1  0.21445800  0.99889900  0.69048200  1
  O  O60  1  0.45275700  0.31560100  0.64233300  1
  O  O61  1  0.86284400  0.54724300  0.64233300  1
  O  O62  1  0.68439900  0.13715600  0.64233300  1
  O  O63  1  0.17115167  0.18453133  0.92240933  1
  O  O64  1  0.65050667  0.14320433  0.52454733  1
  O  O65  1  0.50054100  0.35580100  0.89820300  1
  O  O66  1  0.01337967  0.82884833  0.92240933  1
  O  O67  1  0.85526000  0.49945900  0.89820300  1
  O  O68  1  0.79347600  0.79904300  0.81227600  1
  O  O69  1  0.64419900  0.14474000  0.89820300  1
  O  O70  1  0.50517200  0.66748800  0.74893600  1
  O  O71  1  0.20095700  0.99443300  0.81227600  1
  O  O72  1  0.49269767  0.34949333  0.52454733  1
  O  O73  1  0.81546867  0.98662033  0.92240933  1
  O  O74  1  0.67338600  0.50776700  0.76260100  1
  O  O75  1  0.85679567  0.50730233  0.52454733  1
  O  O76  1  0.49223300  0.16561900  0.76260100  1
  O  O77  1  0.33251200  0.83768400  0.74893600  1
  O  O78  1  0.83438100  0.32661400  0.76260100  1
  O  O79  1  0.00556700  0.20652400  0.81227600  1
  O  O80  1  0.16231600  0.49482800  0.74893600  1
  O  O81  1  0.66776767  0.54889233  0.02381533  1
  O  O82  1  0.45110767  0.11887533  0.02381533  1
  O  O83  1  0.88112467  0.33223233  0.02381533  1
  O  O84  1  0.11942367  0.64893433  0.97566633  1
  O  O85  1  0.52951067  0.88057633  0.97566633  1
  O  O86  1  0.35106567  0.47048933  0.97566633  1
  O  O87  1  0.83781833  0.51786467  0.25574267  1
  O  O88  1  0.31717333  0.47653767  0.85788067  1
  O  O89  1  0.16720767  0.68913433  0.23153633  1
  O  O90  1  0.68004633  0.16218167  0.25574267  1
  O  O91  1  0.52192667  0.83279233  0.23153633  1
  O  O92  1  0.46014267  0.13237633  0.14560933  1
  O  O93  1  0.31086567  0.47807333  0.23153633  1
  O  O94  1  0.17183867  0.00082133  0.08226933  1
  O  O95  1  0.86762367  0.32776633  0.14560933  1
  O  O96  1  0.15936433  0.68282667  0.85788067  1
  O  O97  1  0.48213533  0.31995367  0.25574267  1
  O  O98  1  0.34005267  0.84110033  0.09593433  1
  O  O99  1  0.52346233  0.84063567  0.85788067  1
  O  O100  1  0.15889967  0.49895233  0.09593433  1
  O  O101  1  0.99917867  0.17101733  0.08226933  1
  O  O102  1  0.50104767  0.65994733  0.09593433  1
  O  O103  1  0.67223367  0.53985733  0.14560933  1
  O  O104  1  0.82898267  0.82816133  0.08226933  1
  O  O105  1  0.33443433  0.88222567  0.35714867  1
  O  O106  1  0.11777433  0.45220867  0.35714867  1
  O  O107  1  0.54779133  0.66556567  0.35714867  1
