# generated using pymatgen
data_Li3Mn2P2O8F3
_symmetry_space_group_name_H-M   'P 1'
_cell_length_a   8.85140059
_cell_length_b   9.11019607
_cell_length_c   10.79493905
_cell_angle_alpha   90.00000000
_cell_angle_beta   90.00000000
_cell_angle_gamma   90.00000000
_symmetry_Int_Tables_number   1
_chemical_formula_structural   Li3Mn2P2O8F3
_chemical_formula_sum   'Li12 Mn8 P8 O32 F12'
_cell_volume   870.48223894
_cell_formula_units_Z   4
loop_
 _symmetry_equiv_pos_site_id
 _symmetry_equiv_pos_as_xyz
  1  'x, y, z'
loop_
 _atom_site_type_symbol
 _atom_site_label
 _atom_site_symmetry_multiplicity
 _atom_site_fract_x
 _atom_site_fract_y
 _atom_site_fract_z
 _atom_site_occupancy
  Li  Li0  1  0.21159450  0.00000000  0.50000000  1
  Li  Li1  1  0.51588850  0.71480075  0.00000000  1
  Li  Li2  1  0.01588850  0.28519925  0.50000000  1
  Li  Li3  1  0.71159450  0.00000000  0.00000000  1
  Li  Li4  1  0.01588850  0.71480075  0.50000000  1
  Li  Li5  1  0.51588850  0.28519925  0.00000000  1
  Li  Li6  1  0.71159450  0.50000000  0.50000000  1
  Li  Li7  1  0.01588850  0.21480075  0.00000000  1
  Li  Li8  1  0.51588850  0.78519925  0.50000000  1
  Li  Li9  1  0.21159450  0.50000000  0.00000000  1
  Li  Li10  1  0.51588850  0.21480075  0.50000000  1
  Li  Li11  1  0.01588850  0.78519925  0.00000000  1
  Mn  Mn12  1  0.99762925  0.00000000  0.19703625  1
  Mn  Mn13  1  0.49762925  0.00000000  0.30296375  1
  Mn  Mn14  1  0.49762925  0.00000000  0.69703625  1
  Mn  Mn15  1  0.99762925  0.00000000  0.80296375  1
  Mn  Mn16  1  0.49762925  0.50000000  0.19703625  1
  Mn  Mn17  1  0.99762925  0.50000000  0.30296375  1
  Mn  Mn18  1  0.99762925  0.50000000  0.69703625  1
  Mn  Mn19  1  0.49762925  0.50000000  0.80296375  1
  P  P20  1  0.74218750  0.25000000  0.25000000  1
  P  P21  1  0.74218750  0.75000000  0.25000000  1
  P  P22  1  0.24218750  0.25000000  0.75000000  1
  P  P23  1  0.24218750  0.75000000  0.75000000  1
  P  P24  1  0.24218750  0.75000000  0.25000000  1
  P  P25  1  0.24218750  0.25000000  0.25000000  1
  P  P26  1  0.74218750  0.75000000  0.75000000  1
  P  P27  1  0.74218750  0.25000000  0.75000000  1
  O  O28  1  0.64422900  0.15925075  0.34156425  1
  O  O29  1  0.64422900  0.34074925  0.15843575  1
  O  O30  1  0.64422900  0.65925075  0.15843575  1
  O  O31  1  0.64422900  0.84074925  0.34156425  1
  O  O32  1  0.84080575  0.15114600  0.16582425  1
  O  O33  1  0.84080575  0.34885400  0.33417575  1
  O  O34  1  0.84080575  0.65114600  0.33417575  1
  O  O35  1  0.84080575  0.84885400  0.16582425  1
  O  O36  1  0.14422900  0.15925075  0.84156425  1
  O  O37  1  0.14422900  0.34074925  0.65843575  1
  O  O38  1  0.14422900  0.65925075  0.65843575  1
  O  O39  1  0.14422900  0.84074925  0.84156425  1
  O  O40  1  0.34080575  0.15114600  0.66582425  1
  O  O41  1  0.34080575  0.34885400  0.83417575  1
  O  O42  1  0.34080575  0.65114600  0.83417575  1
  O  O43  1  0.34080575  0.84885400  0.66582425  1
  O  O44  1  0.14422900  0.65925075  0.34156425  1
  O  O45  1  0.14422900  0.84074925  0.15843575  1
  O  O46  1  0.14422900  0.15925075  0.15843575  1
  O  O47  1  0.14422900  0.34074925  0.34156425  1
  O  O48  1  0.34080575  0.65114600  0.16582425  1
  O  O49  1  0.34080575  0.84885400  0.33417575  1
  O  O50  1  0.34080575  0.15114600  0.33417575  1
  O  O51  1  0.34080575  0.34885400  0.16582425  1
  O  O52  1  0.64422900  0.65925075  0.84156425  1
  O  O53  1  0.64422900  0.84074925  0.65843575  1
  O  O54  1  0.64422900  0.15925075  0.65843575  1
  O  O55  1  0.64422900  0.34074925  0.84156425  1
  O  O56  1  0.84080575  0.65114600  0.66582425  1
  O  O57  1  0.84080575  0.84885400  0.83417575  1
  O  O58  1  0.84080575  0.15114600  0.83417575  1
  O  O59  1  0.84080575  0.34885400  0.66582425  1
  F  F60  1  0.47754125  0.00000000  0.50000000  1
  F  F61  1  0.04414800  0.00000000  0.37900375  1
  F  F62  1  0.54414800  0.00000000  0.12099625  1
  F  F63  1  0.97754125  0.00000000  0.00000000  1
  F  F64  1  0.54414800  0.00000000  0.87900375  1
  F  F65  1  0.04414800  0.00000000  0.62099625  1
  F  F66  1  0.97754125  0.50000000  0.50000000  1
  F  F67  1  0.54414800  0.50000000  0.37900375  1
  F  F68  1  0.04414800  0.50000000  0.12099625  1
  F  F69  1  0.47754125  0.50000000  0.00000000  1
  F  F70  1  0.04414800  0.50000000  0.87900375  1
  F  F71  1  0.54414800  0.50000000  0.62099625  1
