# generated using pymatgen
data_V(CO3)2
_symmetry_space_group_name_H-M   'P 1'
_cell_length_a   4.85179971
_cell_length_b   4.85179971
_cell_length_c   17.23076526
_cell_angle_alpha   90.00000000
_cell_angle_beta   90.00000000
_cell_angle_gamma   120.00000000
_symmetry_Int_Tables_number   1
_chemical_formula_structural   V(CO3)2
_chemical_formula_sum   'V3 C6 O18'
_cell_volume   351.26989178
_cell_formula_units_Z   3
loop_
 _symmetry_equiv_pos_site_id
 _symmetry_equiv_pos_as_xyz
  1  'x, y, z'
loop_
 _atom_site_type_symbol
 _atom_site_label
 _atom_site_symmetry_multiplicity
 _atom_site_fract_x
 _atom_site_fract_y
 _atom_site_fract_z
 _atom_site_occupancy
  V  V0  1  0.00000000  0.00000000  0.00000000  1
  V  V1  1  0.66666667  0.33333333  0.33333333  1
  V  V2  1  0.33333333  0.66666667  0.66666667  1
  C  C3  1  0.66666667  0.33333333  0.72887283  1
  C  C4  1  0.66666667  0.33333333  0.93779383  1
  C  C5  1  0.33333333  0.66666667  0.06220617  1
  C  C6  1  0.33333333  0.66666667  0.27112717  1
  C  C7  1  0.00000000  0.00000000  0.39553950  1
  C  C8  1  0.00000000  0.00000000  0.60446050  1
  O  O9  1  0.44361700  0.40492050  0.73036050  1
  O  O10  1  0.37202983  0.11028367  0.93630617  1
  O  O11  1  0.73825383  0.62797017  0.93630617  1
  O  O12  1  0.59507950  0.03869650  0.73036050  1
  O  O13  1  0.96130350  0.55638300  0.73036050  1
  O  O14  1  0.88971633  0.26174617  0.93630617  1
  O  O15  1  0.11028367  0.73825383  0.06369383  1
  O  O16  1  0.03869650  0.44361700  0.26963950  1
  O  O17  1  0.40492050  0.96130350  0.26963950  1
  O  O18  1  0.26174617  0.37202983  0.06369383  1
  O  O19  1  0.62797017  0.88971633  0.06369383  1
  O  O20  1  0.55638300  0.59507950  0.26963950  1
  O  O21  1  0.77695033  0.07158717  0.39702717  1
  O  O22  1  0.70536317  0.77695033  0.60297283  1
  O  O23  1  0.07158717  0.29463683  0.60297283  1
  O  O24  1  0.92841283  0.70536317  0.39702717  1
  O  O25  1  0.29463683  0.22304967  0.39702717  1
  O  O26  1  0.22304967  0.92841283  0.60297283  1
