# generated using pymatgen
data_Li3LaNiO4
_symmetry_space_group_name_H-M   'P 1'
_cell_length_a   11.35773000
_cell_length_b   11.35773000
_cell_length_c   12.85600400
_cell_angle_alpha   90.00000000
_cell_angle_beta   90.00000000
_cell_angle_gamma   90.00000000
_symmetry_Int_Tables_number   1
_chemical_formula_structural   Li3LaNiO4
_chemical_formula_sum   'Li48 La16 Ni16 O64'
_cell_volume   1658.39919935
_cell_formula_units_Z   16
loop_
 _symmetry_equiv_pos_site_id
 _symmetry_equiv_pos_as_xyz
  1  'x, y, z'
loop_
 _atom_site_type_symbol
 _atom_site_label
 _atom_site_symmetry_multiplicity
 _atom_site_fract_x
 _atom_site_fract_y
 _atom_site_fract_z
 _atom_site_occupancy
  Li  Li0  1  0.66150250  0.48143550  0.43964050  1
  Li  Li1  1  0.83849750  0.51856450  0.31035950  1
  Li  Li2  1  0.98143550  0.83849750  0.06035950  1
  Li  Li3  1  0.98143550  0.33849750  0.18964050  1
  Li  Li4  1  0.00476200  0.15317100  0.31384200  1
  Li  Li5  1  0.01391500  0.16054500  0.56570600  1
  Li  Li6  1  0.01856450  0.16150250  0.06035950  1
  Li  Li7  1  0.01856450  0.66150250  0.18964050  1
  Li  Li8  1  0.15317100  0.99523800  0.68615800  1
  Li  Li9  1  0.16054500  0.98608500  0.43429400  1
  Li  Li10  1  0.16150250  0.48143550  0.31035950  1
  Li  Li11  1  0.33849750  0.51856450  0.43964050  1
  Li  Li12  1  0.33945500  0.51391500  0.93429400  1
  Li  Li13  1  0.33945500  0.01391500  0.31570600  1
  Li  Li14  1  0.34682900  0.00476200  0.06384200  1
  Li  Li15  1  0.34682900  0.50476200  0.18615800  1
  Li  Li16  1  0.48608500  0.83945500  0.18429400  1
  Li  Li17  1  0.48608500  0.33945500  0.06570600  1
  Li  Li18  1  0.50476200  0.15317100  0.43615800  1
  Li  Li19  1  0.49523800  0.84682900  0.43615800  1
  Li  Li20  1  0.49523800  0.34682900  0.81384200  1
  Li  Li21  1  0.51391500  0.16054500  0.18429400  1
  Li  Li22  1  0.65317100  0.99523800  0.06384200  1
  Li  Li23  1  0.66054500  0.98608500  0.31570600  1
  Li  Li24  1  0.16150250  0.98143550  0.93964050  1
  Li  Li25  1  0.33849750  0.01856450  0.81035950  1
  Li  Li26  1  0.48143550  0.33849750  0.56035950  1
  Li  Li27  1  0.48143550  0.83849750  0.68964050  1
  Li  Li28  1  0.50476200  0.65317100  0.81384200  1
  Li  Li29  1  0.51391500  0.66054500  0.06570600  1
  Li  Li30  1  0.51856450  0.66150250  0.56035950  1
  Li  Li31  1  0.51856450  0.16150250  0.68964050  1
  Li  Li32  1  0.65317100  0.49523800  0.18615800  1
  Li  Li33  1  0.66054500  0.48608500  0.93429400  1
  Li  Li34  1  0.66150250  0.98143550  0.81035950  1
  Li  Li35  1  0.83849750  0.01856450  0.93964050  1
  Li  Li36  1  0.83945500  0.01391500  0.43429400  1
  Li  Li37  1  0.83945500  0.51391500  0.81570600  1
  Li  Li38  1  0.84682900  0.50476200  0.56384200  1
  Li  Li39  1  0.84682900  0.00476200  0.68615800  1
  Li  Li40  1  0.98608500  0.33945500  0.68429400  1
  Li  Li41  1  0.98608500  0.83945500  0.56570600  1
  Li  Li42  1  0.00476200  0.65317100  0.93615800  1
  Li  Li43  1  0.99523800  0.34682900  0.93615800  1
  Li  Li44  1  0.99523800  0.84682900  0.31384200  1
  Li  Li45  1  0.01391500  0.66054500  0.68429400  1
  Li  Li46  1  0.15317100  0.49523800  0.56384200  1
  Li  Li47  1  0.16054500  0.48608500  0.81570600  1
  La  La48  1  0.23570150  0.76217950  0.79854050  1
  La  La49  1  0.23782050  0.23570150  0.20145950  1
  La  La50  1  0.23782050  0.73570150  0.04854050  1
  La  La51  1  0.23570150  0.26217950  0.45145950  1
  La  La52  1  0.26429850  0.23782050  0.95145950  1
  La  La53  1  0.26217950  0.26429850  0.70145950  1
  La  La54  1  0.26217950  0.76429850  0.54854050  1
  La  La55  1  0.26429850  0.73782050  0.29854050  1
  La  La56  1  0.73570150  0.26217950  0.29854050  1
  La  La57  1  0.73782050  0.73570150  0.70145950  1
  La  La58  1  0.73782050  0.23570150  0.54854050  1
  La  La59  1  0.73570150  0.76217950  0.95145950  1
  La  La60  1  0.76429850  0.73782050  0.45145950  1
  La  La61  1  0.76217950  0.76429850  0.20145950  1
  La  La62  1  0.76217950  0.26429850  0.04854050  1
  La  La63  1  0.76429850  0.23782050  0.79854050  1
  Ni  Ni64  1  0.97257050  0.33817650  0.43482350  1
  Ni  Ni65  1  0.16182350  0.47257050  0.06517650  1
  Ni  Ni66  1  0.16182350  0.97257050  0.18482350  1
  Ni  Ni67  1  0.33817650  0.02742950  0.56517650  1
  Ni  Ni68  1  0.47257050  0.33817650  0.31517650  1
  Ni  Ni69  1  0.02742950  0.16182350  0.81517650  1
  Ni  Ni70  1  0.52742950  0.16182350  0.93482350  1
  Ni  Ni71  1  0.33817650  0.52742950  0.68482350  1
  Ni  Ni72  1  0.47257050  0.83817650  0.93482350  1
  Ni  Ni73  1  0.66182350  0.97257050  0.56517650  1
  Ni  Ni74  1  0.66182350  0.47257050  0.68482350  1
  Ni  Ni75  1  0.83817650  0.52742950  0.06517650  1
  Ni  Ni76  1  0.97257050  0.83817650  0.81517650  1
  Ni  Ni77  1  0.52742950  0.66182350  0.31517650  1
  Ni  Ni78  1  0.02742950  0.66182350  0.43482350  1
  Ni  Ni79  1  0.83817650  0.02742950  0.18482350  1
  O  O80  1  0.82039000  0.40898500  0.43284700  1
  O  O81  1  0.90898500  0.17961000  0.18284700  1
  O  O82  1  0.90377400  0.17417300  0.44004000  1
  O  O83  1  0.91892100  0.16325700  0.69368200  1
  O  O84  1  0.08107900  0.33674300  0.55631800  1
  O  O85  1  0.08550900  0.32348100  0.31689800  1
  O  O86  1  0.09101500  0.32039000  0.06715300  1
  O  O87  1  0.16325700  0.08107900  0.30631800  1
  O  O88  1  0.16325700  0.58107900  0.94368200  1
  O  O89  1  0.17961000  0.09101500  0.81715300  1
  O  O90  1  0.17651900  0.08550900  0.06689800  1
  O  O91  1  0.17651900  0.58550900  0.18310200  1
  O  O92  1  0.17417300  0.09622600  0.55996000  1
  O  O93  1  0.32582700  0.90377400  0.19004000  1
  O  O94  1  0.32582700  0.40377400  0.05996000  1
  O  O95  1  0.82348100  0.41449100  0.18310200  1
  O  O96  1  0.32039000  0.40898500  0.31715300  1
  O  O97  1  0.33674300  0.41892100  0.80631800  1
  O  O98  1  0.33674300  0.91892100  0.44368200  1
  O  O99  1  0.40898500  0.17961000  0.56715300  1
  O  O100  1  0.40377400  0.17417300  0.30996000  1
  O  O101  1  0.91449100  0.67651900  0.31689800  1
  O  O102  1  0.41449100  0.67651900  0.43310200  1
  O  O103  1  0.41892100  0.16325700  0.05631800  1
  O  O104  1  0.58107900  0.33674300  0.19368200  1
  O  O105  1  0.08550900  0.82348100  0.93310200  1
  O  O106  1  0.59622600  0.32582700  0.94004000  1
  O  O107  1  0.59622600  0.82582700  0.30996000  1
  O  O108  1  0.59101500  0.32039000  0.68284700  1
  O  O109  1  0.67961000  0.09101500  0.93284700  1
  O  O110  1  0.67417300  0.09622600  0.19004000  1
  O  O111  1  0.32348100  0.41449100  0.56689800  1
  O  O112  1  0.32039000  0.90898500  0.93284700  1
  O  O113  1  0.40898500  0.67961000  0.68284700  1
  O  O114  1  0.40377400  0.67417300  0.94004000  1
  O  O115  1  0.41892100  0.66325700  0.19368200  1
  O  O116  1  0.58107900  0.83674300  0.05631800  1
  O  O117  1  0.58550900  0.82348100  0.81689800  1
  O  O118  1  0.59101500  0.82039000  0.56715300  1
  O  O119  1  0.66325700  0.58107900  0.80631800  1
  O  O120  1  0.66325700  0.08107900  0.44368200  1
  O  O121  1  0.67961000  0.59101500  0.31715300  1
  O  O122  1  0.67651900  0.58550900  0.56689800  1
  O  O123  1  0.67651900  0.08550900  0.68310200  1
  O  O124  1  0.67417300  0.59622600  0.05996000  1
  O  O125  1  0.82582700  0.40377400  0.69004000  1
  O  O126  1  0.82582700  0.90377400  0.55996000  1
  O  O127  1  0.32348100  0.91449100  0.68310200  1
  O  O128  1  0.82039000  0.90898500  0.81715300  1
  O  O129  1  0.83674300  0.91892100  0.30631800  1
  O  O130  1  0.83674300  0.41892100  0.94368200  1
  O  O131  1  0.90898500  0.67961000  0.06715300  1
  O  O132  1  0.90377400  0.67417300  0.80996000  1
  O  O133  1  0.41449100  0.17651900  0.81689800  1
  O  O134  1  0.91449100  0.17651900  0.93310200  1
  O  O135  1  0.91892100  0.66325700  0.55631800  1
  O  O136  1  0.08107900  0.83674300  0.69368200  1
  O  O137  1  0.58550900  0.32348100  0.43310200  1
  O  O138  1  0.09622600  0.82582700  0.44004000  1
  O  O139  1  0.09622600  0.32582700  0.80996000  1
  O  O140  1  0.09101500  0.82039000  0.18284700  1
  O  O141  1  0.17961000  0.59101500  0.43284700  1
  O  O142  1  0.17417300  0.59622600  0.69004000  1
  O  O143  1  0.82348100  0.91449100  0.06689800  1
