# generated using pymatgen
data_LiV2OF5
_symmetry_space_group_name_H-M   'P 1'
_cell_length_a   22.61076028
_cell_length_b   5.24191000
_cell_length_c   5.60053507
_cell_angle_alpha   90.00000000
_cell_angle_beta   99.56709097
_cell_angle_gamma   90.00000000
_symmetry_Int_Tables_number   1
_chemical_formula_structural   LiV2OF5
_chemical_formula_sum   'Li6 V12 O6 F30'
_cell_volume   654.56312129
_cell_formula_units_Z   6
loop_
 _symmetry_equiv_pos_site_id
 _symmetry_equiv_pos_as_xyz
  1  'x, y, z'
loop_
 _atom_site_type_symbol
 _atom_site_label
 _atom_site_symmetry_multiplicity
 _atom_site_fract_x
 _atom_site_fract_y
 _atom_site_fract_z
 _atom_site_occupancy
  Li  Li0  1  0.83720450  0.94269850  0.39492700  1
  Li  Li1  1  0.00000000  0.89063800  0.50000000  1
  Li  Li2  1  0.66279550  0.44269850  0.60507300  1
  Li  Li3  1  0.33720450  0.44269850  0.39492700  1
  Li  Li4  1  0.50000000  0.39063800  0.50000000  1
  Li  Li5  1  0.16279550  0.94269850  0.60507300  1
  V  V6  1  0.91327550  0.92013850  0.91486100  1
  V  V7  1  0.73993600  0.91112800  0.74540100  1
  V  V8  1  0.07975050  0.41808050  0.57743600  1
  V  V9  1  0.92024950  0.41808050  0.42256400  1
  V  V10  1  0.58672450  0.42013850  0.08513900  1
  V  V11  1  0.76006400  0.41112800  0.25459900  1
  V  V12  1  0.41327550  0.42013850  0.91486100  1
  V  V13  1  0.23993600  0.41112800  0.74540100  1
  V  V14  1  0.57975050  0.91808050  0.57743600  1
  V  V15  1  0.42024950  0.91808050  0.42256400  1
  V  V16  1  0.08672450  0.92013850  0.08513900  1
  V  V17  1  0.26006400  0.91112800  0.25459900  1
  O  O18  1  0.66139100  0.80040500  0.65808900  1
  O  O19  1  0.00000000  0.52585850  0.50000000  1
  O  O20  1  0.83860900  0.30040500  0.34191100  1
  O  O21  1  0.16139100  0.30040500  0.65808900  1
  O  O22  1  0.50000000  0.02585850  0.50000000  1
  O  O23  1  0.33860900  0.80040500  0.34191100  1
  F  F24  1  0.72693350  0.23797550  0.54708800  1
  F  F25  1  0.60323350  0.25107650  0.77121500  1
  F  F26  1  0.73033900  0.11432500  0.04344300  1
  F  F27  1  0.60002700  0.11802800  0.28039400  1
  F  F28  1  0.83090400  0.01945800  0.80586500  1
  F  F29  1  0.00000000  0.80843400  0.00000000  1
  F  F30  1  0.76854650  0.74185150  0.44713100  1
  F  F31  1  0.89676650  0.75107650  0.22878500  1
  F  F32  1  0.76966100  0.61432500  0.95655700  1
  F  F33  1  0.89997300  0.61802800  0.71960600  1
  F  F34  1  0.66909600  0.51945800  0.19413500  1
  F  F35  1  0.06174100  0.21424200  0.87444400  1
  F  F36  1  0.93417800  0.21947500  0.11411300  1
  F  F37  1  0.06063150  0.08404050  0.38287700  1
  F  F38  1  0.93936850  0.08404050  0.61712300  1
  F  F39  1  0.22693350  0.73797550  0.54708800  1
  F  F40  1  0.10323350  0.75107650  0.77121500  1
  F  F41  1  0.23033900  0.61432500  0.04344300  1
  F  F42  1  0.10002700  0.61802800  0.28039400  1
  F  F43  1  0.33090400  0.51945800  0.80586500  1
  F  F44  1  0.50000000  0.30843400  0.00000000  1
  F  F45  1  0.26854650  0.24185150  0.44713100  1
  F  F46  1  0.39676650  0.25107650  0.22878500  1
  F  F47  1  0.26966100  0.11432500  0.95655700  1
  F  F48  1  0.39997300  0.11802800  0.71960600  1
  F  F49  1  0.16909600  0.01945800  0.19413500  1
  F  F50  1  0.56174100  0.71424200  0.87444400  1
  F  F51  1  0.43417800  0.71947500  0.11411300  1
  F  F52  1  0.56063150  0.58404050  0.38287700  1
  F  F53  1  0.43936850  0.58404050  0.61712300  1
