# generated using pymatgen
data_Li6Mn5Fe(BO3)6
_symmetry_space_group_name_H-M   'P 1'
_cell_length_a   8.27155300
_cell_length_b   3.18374000
_cell_length_c   14.33027345
_cell_angle_alpha   90.00000000
_cell_angle_beta   90.09913225
_cell_angle_gamma   90.00000000
_symmetry_Int_Tables_number   1
_chemical_formula_structural   Li6Mn5Fe(BO3)6
_chemical_formula_sum   'Li6 Mn5 Fe1 B6 O18'
_cell_volume   377.37965083
_cell_formula_units_Z   1
loop_
 _symmetry_equiv_pos_site_id
 _symmetry_equiv_pos_as_xyz
  1  'x, y, z'
loop_
 _atom_site_type_symbol
 _atom_site_label
 _atom_site_symmetry_multiplicity
 _atom_site_fract_x
 _atom_site_fract_y
 _atom_site_fract_z
 _atom_site_occupancy
  Li  Li0  1  0.29263000  0.50000000  0.99036700  1
  Li  Li1  1  0.34060700  0.50000000  0.35820800  1
  Li  Li2  1  0.36645500  0.50000000  0.65102500  1
  Li  Li3  1  0.79292800  0.50000000  0.49177200  1
  Li  Li4  1  0.84146800  0.50000000  0.85731300  1
  Li  Li5  1  0.86713600  0.50000000  0.15043200  1
  Mn  Mn6  1  0.13498400  0.00000000  0.50627400  1
  Mn  Mn7  1  0.19199500  0.00000000  0.17997000  1
  Mn  Mn8  1  0.63407600  0.00000000  0.00558200  1
  Mn  Mn9  1  0.67359700  0.00000000  0.31469500  1
  Mn  Mn10  1  0.69159000  0.00000000  0.67979300  1
  Fe  Fe11  1  0.17526600  0.00000000  0.81672800  1
  B  B12  1  0.00170700  0.50000000  0.66776300  1
  B  B13  1  0.99956300  0.00000000  0.99900300  1
  B  B14  1  0.00002000  0.50000000  0.33337000  1
  B  B15  1  0.49993000  0.50000000  0.16647500  1
  B  B16  1  0.49996100  0.00000000  0.50010900  1
  B  B17  1  0.49782700  0.50000000  0.83325600  1
  O  O18  1  0.01054600  0.50000000  0.43001900  1
  O  O19  1  0.01815500  0.50000000  0.76430400  1
  O  O20  1  0.13863600  0.50000000  0.61113100  1
  O  O21  1  0.13987300  0.50000000  0.27971000  1
  O  O22  1  0.15340300  0.00000000  0.95840000  1
  O  O23  1  0.34742000  0.50000000  0.12490800  1
  O  O24  1  0.34637900  0.50000000  0.79087500  1
  O  O25  1  0.36422100  0.00000000  0.44219500  1
  O  O26  1  0.48118300  0.00000000  0.59678600  1
  O  O27  1  0.50992200  0.50000000  0.92997500  1
  O  O28  1  0.51379900  0.50000000  0.26332400  1
  O  O29  1  0.63816900  0.50000000  0.11117100  1
  O  O30  1  0.63740800  0.50000000  0.77944600  1
  O  O31  1  0.65457800  0.00000000  0.46119200  1
  O  O32  1  0.84858400  0.50000000  0.62658700  1
  O  O33  1  0.84963100  0.50000000  0.29003900  1
  O  O34  1  0.86326200  0.00000000  0.94204400  1
  O  O35  1  0.98309200  0.00000000  0.09576300  1
