# generated using pymatgen
data_Mn2O3F
_symmetry_space_group_name_H-M   'P 1'
_cell_length_a   8.81292400
_cell_length_b   6.52615400
_cell_length_c   8.82566912
_cell_angle_alpha   90.00000000
_cell_angle_beta   93.23191837
_cell_angle_gamma   90.00000000
_symmetry_Int_Tables_number   1
_chemical_formula_structural   Mn2O3F
_chemical_formula_sum   'Mn16 O24 F8'
_cell_volume   506.79660174
_cell_formula_units_Z   8
loop_
 _symmetry_equiv_pos_site_id
 _symmetry_equiv_pos_as_xyz
  1  'x, y, z'
loop_
 _atom_site_type_symbol
 _atom_site_label
 _atom_site_symmetry_multiplicity
 _atom_site_fract_x
 _atom_site_fract_y
 _atom_site_fract_z
 _atom_site_occupancy
  Mn  Mn0  1  0.13791400  0.00000000  0.63925900  1
  Mn  Mn1  1  0.86208600  0.00000000  0.36074100  1
  Mn  Mn2  1  0.50000000  0.00000000  0.50000000  1
  Mn  Mn3  1  0.24397000  0.00000000  0.26038300  1
  Mn  Mn4  1  0.00000000  0.00000000  0.00000000  1
  Mn  Mn5  1  0.60697200  0.00000000  0.13191300  1
  Mn  Mn6  1  0.39302800  0.00000000  0.86808700  1
  Mn  Mn7  1  0.75603000  0.00000000  0.73961700  1
  Mn  Mn8  1  0.63791400  0.50000000  0.63925900  1
  Mn  Mn9  1  0.36208600  0.50000000  0.36074100  1
  Mn  Mn10  1  0.00000000  0.50000000  0.50000000  1
  Mn  Mn11  1  0.74397000  0.50000000  0.26038300  1
  Mn  Mn12  1  0.50000000  0.50000000  0.00000000  1
  Mn  Mn13  1  0.10697200  0.50000000  0.13191300  1
  Mn  Mn14  1  0.89302800  0.50000000  0.86808700  1
  Mn  Mn15  1  0.25603000  0.50000000  0.73961700  1
  O  O16  1  0.74256800  0.18919900  0.24438000  1
  O  O17  1  0.02739800  0.00000000  0.22047100  1
  O  O18  1  0.27750200  0.00000000  0.48220600  1
  O  O19  1  0.53596000  0.00000000  0.71901300  1
  O  O20  1  0.72249800  0.00000000  0.51779400  1
  O  O21  1  0.46404000  0.00000000  0.28098700  1
  O  O22  1  0.97260200  0.00000000  0.77952900  1
  O  O23  1  0.25743200  0.81080100  0.75562000  1
  O  O24  1  0.74256800  0.81080100  0.24438000  1
  O  O25  1  0.50000000  0.80727500  0.00000000  1
  O  O26  1  0.25743200  0.18919900  0.75562000  1
  O  O27  1  0.50000000  0.19272500  0.00000000  1
  O  O28  1  0.24256800  0.68919900  0.24438000  1
  O  O29  1  0.52739800  0.50000000  0.22047100  1
  O  O30  1  0.77750200  0.50000000  0.48220600  1
  O  O31  1  0.03596000  0.50000000  0.71901300  1
  O  O32  1  0.22249800  0.50000000  0.51779400  1
  O  O33  1  0.96404000  0.50000000  0.28098700  1
  O  O34  1  0.47260200  0.50000000  0.77952900  1
  O  O35  1  0.75743200  0.31080100  0.75562000  1
  O  O36  1  0.24256800  0.31080100  0.24438000  1
  O  O37  1  0.00000000  0.30727500  0.00000000  1
  O  O38  1  0.75743200  0.68919900  0.75562000  1
  O  O39  1  0.00000000  0.69272500  0.00000000  1
  F  F40  1  0.50000000  0.31955700  0.50000000  1
  F  F41  1  0.50000000  0.68044300  0.50000000  1
  F  F42  1  0.76258500  0.00000000  0.97316500  1
  F  F43  1  0.23741500  0.00000000  0.02683500  1
  F  F44  1  0.00000000  0.81955700  0.50000000  1
  F  F45  1  0.00000000  0.18044300  0.50000000  1
  F  F46  1  0.26258500  0.50000000  0.97316500  1
  F  F47  1  0.73741500  0.50000000  0.02683500  1
