# generated using pymatgen
data_Na2MnO3
_symmetry_space_group_name_H-M   'P 1'
_cell_length_a   5.28854200
_cell_length_b   9.16501600
_cell_length_c   5.69912674
_cell_angle_alpha   90.00000000
_cell_angle_beta   108.63619096
_cell_angle_gamma   90.00000000
_symmetry_Int_Tables_number   1
_chemical_formula_structural   Na2MnO3
_chemical_formula_sum   'Na8 Mn4 O12'
_cell_volume   261.75037533
_cell_formula_units_Z   4
loop_
 _symmetry_equiv_pos_site_id
 _symmetry_equiv_pos_as_xyz
  1  'x, y, z'
loop_
 _atom_site_type_symbol
 _atom_site_label
 _atom_site_symmetry_multiplicity
 _atom_site_fract_x
 _atom_site_fract_y
 _atom_site_fract_z
 _atom_site_occupancy
  Na  Na0  1  0.00000000  0.00000000  0.00000000  1
  Na  Na1  1  0.00000000  0.66146500  0.00000000  1
  Na  Na2  1  0.50000000  0.83853500  0.00000000  1
  Na  Na3  1  0.50000000  0.00000000  0.50000000  1
  Na  Na4  1  0.50000000  0.50000000  0.00000000  1
  Na  Na5  1  0.50000000  0.16146500  0.00000000  1
  Na  Na6  1  0.00000000  0.33853500  0.00000000  1
  Na  Na7  1  0.00000000  0.50000000  0.50000000  1
  Mn  Mn8  1  0.00000000  0.83593500  0.50000000  1
  Mn  Mn9  1  0.50000000  0.66406500  0.50000000  1
  Mn  Mn10  1  0.50000000  0.33593500  0.50000000  1
  Mn  Mn11  1  0.00000000  0.16406500  0.50000000  1
  O  O12  1  0.25588650  0.69084350  0.69982000  1
  O  O13  1  0.24411350  0.80915650  0.30018000  1
  O  O14  1  0.80807900  0.00000000  0.29905100  1
  O  O15  1  0.75588650  0.80915650  0.69982000  1
  O  O16  1  0.74411350  0.69084350  0.30018000  1
  O  O17  1  0.19192100  0.00000000  0.70094900  1
  O  O18  1  0.75588650  0.19084350  0.69982000  1
  O  O19  1  0.74411350  0.30915650  0.30018000  1
  O  O20  1  0.30807900  0.50000000  0.29905100  1
  O  O21  1  0.25588650  0.30915650  0.69982000  1
  O  O22  1  0.24411350  0.19084350  0.30018000  1
  O  O23  1  0.69192100  0.50000000  0.70094900  1
