# generated using pymatgen
data_LiMn2(PO4)2
_symmetry_space_group_name_H-M   'P 1'
_cell_length_a   4.87360753
_cell_length_b   10.17784044
_cell_length_c   6.14993288
_cell_angle_alpha   90.00000000
_cell_angle_beta   90.16731258
_cell_angle_gamma   90.00000000
_symmetry_Int_Tables_number   1
_chemical_formula_structural   LiMn2(PO4)2
_chemical_formula_sum   'Li2 Mn4 P4 O16'
_cell_volume   305.05258873
_cell_formula_units_Z   2
loop_
 _symmetry_equiv_pos_site_id
 _symmetry_equiv_pos_as_xyz
  1  'x, y, z'
loop_
 _atom_site_type_symbol
 _atom_site_label
 _atom_site_symmetry_multiplicity
 _atom_site_fract_x
 _atom_site_fract_y
 _atom_site_fract_z
 _atom_site_occupancy
  Li  Li0  1  0.74952050  0.79464200  0.74088700  1
  Li  Li1  1  0.25047950  0.29464200  0.25911300  1
  Mn  Mn2  1  0.79168450  0.51470000  0.99801000  1
  Mn  Mn3  1  0.70567450  0.08004800  0.50619400  1
  Mn  Mn4  1  0.29432550  0.58004800  0.49380600  1
  Mn  Mn5  1  0.20831550  0.01470000  0.00199000  1
  P  P6  1  0.32828350  0.69988600  0.99418100  1
  P  P7  1  0.82662150  0.39358900  0.49815600  1
  P  P8  1  0.17337850  0.89358900  0.50184400  1
  P  P9  1  0.67171650  0.19988600  0.00581900  1
  O  O10  1  0.57995150  0.34495500  0.00359400  1
  O  O11  1  0.01335050  0.68621900  0.98096100  1
  O  O12  1  0.53985450  0.12138800  0.81447400  1
  O  O13  1  0.47862550  0.63942400  0.79044000  1
  O  O14  1  0.02013750  0.96097500  0.70596800  1
  O  O15  1  0.95175250  0.47142600  0.69290400  1
  O  O16  1  0.92407950  0.24884300  0.50093100  1
  O  O17  1  0.51296750  0.40431800  0.48323700  1
  O  O18  1  0.48703250  0.90431800  0.51676300  1
  O  O19  1  0.07592050  0.74884300  0.49906900  1
  O  O20  1  0.04824750  0.97142600  0.30709600  1
  O  O21  1  0.97986250  0.46097500  0.29403200  1
  O  O22  1  0.52137450  0.13942400  0.20956000  1
  O  O23  1  0.46014550  0.62138800  0.18552600  1
  O  O24  1  0.98664950  0.18621900  0.01903900  1
  O  O25  1  0.42004850  0.84495500  0.99640600  1
