# generated using pymatgen
data_Li3VP3O11
_symmetry_space_group_name_H-M   'P 1'
_cell_length_a   6.04103934
_cell_length_b   8.27486592
_cell_length_c   9.57552396
_cell_angle_alpha   114.17832167
_cell_angle_beta   101.50579991
_cell_angle_gamma   95.63733965
_symmetry_Int_Tables_number   1
_chemical_formula_structural   Li3VP3O11
_chemical_formula_sum   'Li6 V2 P6 O22'
_cell_volume   419.14528737
_cell_formula_units_Z   2
loop_
 _symmetry_equiv_pos_site_id
 _symmetry_equiv_pos_as_xyz
  1  'x, y, z'
loop_
 _atom_site_type_symbol
 _atom_site_label
 _atom_site_symmetry_multiplicity
 _atom_site_fract_x
 _atom_site_fract_y
 _atom_site_fract_z
 _atom_site_occupancy
  Li  Li0  1  0.39502137  0.10621935  0.03825135  1
  Li  Li1  1  0.61474504  0.54028894  0.88454588  1
  Li  Li2  1  0.23209248  0.54552154  0.47657990  1
  Li  Li3  1  0.76790752  0.45447846  0.52342010  1
  Li  Li4  1  0.38525496  0.45971106  0.11545412  1
  Li  Li5  1  0.60497863  0.89378065  0.96174865  1
  V  V6  1  0.10542471  0.02578137  0.27570333  1
  V  V7  1  0.89457529  0.97421863  0.72429667  1
  P  P8  1  0.07607456  0.56870466  0.77005597  1
  P  P9  1  0.85561776  0.22292403  0.89271727  1
  P  P10  1  0.35698814  0.09102592  0.59706217  1
  P  P11  1  0.64301186  0.90897408  0.40293783  1
  P  P12  1  0.14438224  0.77707597  0.10728273  1
  P  P13  1  0.92392544  0.43129534  0.22994403  1
  O  O14  1  0.30069448  0.48902990  0.89777227  1
  O  O15  1  0.63173919  0.16218887  0.93616818  1
  O  O16  1  0.99851328  0.73915666  0.77209583  1
  O  O17  1  0.86207660  0.43969126  0.83802181  1
  O  O18  1  0.06552064  0.57442940  0.61289884  1
  O  O19  1  0.92859827  0.85930719  0.96476897  1
  O  O20  1  0.56212821  0.95969911  0.73163379  1
  O  O21  1  0.17618255  0.07425246  0.69262556  1
  O  O22  1  0.57539228  0.71518008  0.48356752  1
  O  O23  1  0.24831040  0.99648325  0.48786945  1
  O  O24  1  0.12272124  0.79056516  0.25529560  1
  O  O25  1  0.87727876  0.20943484  0.74470440  1
  O  O26  1  0.75168960  0.00351675  0.51213055  1
  O  O27  1  0.42460772  0.28481992  0.51643248  1
  O  O28  1  0.82381745  0.92574754  0.30737444  1
  O  O29  1  0.43787179  0.04030089  0.26836621  1
  O  O30  1  0.07140173  0.14069281  0.03523103  1
  O  O31  1  0.93447936  0.42557060  0.38710116  1
  O  O32  1  0.13792340  0.56030874  0.16197819  1
  O  O33  1  0.00148672  0.26084334  0.22790417  1
  O  O34  1  0.36826081  0.83781113  0.06383182  1
  O  O35  1  0.69930552  0.51097010  0.10222773  1
