# generated using pymatgen
data_LiCrPO4
_symmetry_space_group_name_H-M   'P 1'
_cell_length_a   5.08678900
_cell_length_b   6.48144700
_cell_length_c   9.22541700
_cell_angle_alpha   90.00000000
_cell_angle_beta   90.00000000
_cell_angle_gamma   90.00000000
_symmetry_Int_Tables_number   1
_chemical_formula_structural   LiCrPO4
_chemical_formula_sum   'Li4 Cr4 P4 O16'
_cell_volume   304.15972268
_cell_formula_units_Z   4
loop_
 _symmetry_equiv_pos_site_id
 _symmetry_equiv_pos_as_xyz
  1  'x, y, z'
loop_
 _atom_site_type_symbol
 _atom_site_label
 _atom_site_symmetry_multiplicity
 _atom_site_fract_x
 _atom_site_fract_y
 _atom_site_fract_z
 _atom_site_occupancy
  Li  Li0  1  0.95685800  0.25000000  0.66577300  1
  Li  Li1  1  0.45685800  0.75000000  0.83422700  1
  Li  Li2  1  0.54314200  0.25000000  0.16577300  1
  Li  Li3  1  0.04314200  0.75000000  0.33422700  1
  Cr  Cr4  1  0.50000000  0.50000000  0.50000000  1
  Cr  Cr5  1  0.50000000  0.00000000  0.50000000  1
  Cr  Cr6  1  0.00000000  0.50000000  0.00000000  1
  Cr  Cr7  1  0.00000000  0.00000000  0.00000000  1
  P  P8  1  0.96069000  0.75000000  0.68338400  1
  P  P9  1  0.46069000  0.25000000  0.81661600  1
  P  P10  1  0.53931000  0.75000000  0.18338400  1
  P  P11  1  0.03931000  0.25000000  0.31661600  1
  O  O12  1  0.25694600  0.75000000  0.64814000  1
  O  O13  1  0.82917800  0.55272800  0.62283400  1
  O  O14  1  0.82917800  0.94727200  0.62283400  1
  O  O15  1  0.40827300  0.25000000  0.64589800  1
  O  O16  1  0.90827300  0.75000000  0.85410200  1
  O  O17  1  0.32917800  0.44727200  0.87716600  1
  O  O18  1  0.32917800  0.05272800  0.87716600  1
  O  O19  1  0.75694600  0.25000000  0.85186000  1
  O  O20  1  0.24305400  0.75000000  0.14814000  1
  O  O21  1  0.67082200  0.55272800  0.12283400  1
  O  O22  1  0.67082200  0.94727200  0.12283400  1
  O  O23  1  0.09172700  0.25000000  0.14589800  1
  O  O24  1  0.59172700  0.75000000  0.35410200  1
  O  O25  1  0.17082200  0.05272800  0.37716600  1
  O  O26  1  0.17082200  0.44727200  0.37716600  1
  O  O27  1  0.74305400  0.25000000  0.35186000  1
