# generated using pymatgen
data_LiMnPO4
_symmetry_space_group_name_H-M   'P 1'
_cell_length_a   5.28762900
_cell_length_b   7.10460900
_cell_length_c   8.24660300
_cell_angle_alpha   90.00000000
_cell_angle_beta   90.00000000
_cell_angle_gamma   90.00000000
_symmetry_Int_Tables_number   1
_chemical_formula_structural   LiMnPO4
_chemical_formula_sum   'Li4 Mn4 P4 O16'
_cell_volume   309.79631335
_cell_formula_units_Z   4
loop_
 _symmetry_equiv_pos_site_id
 _symmetry_equiv_pos_as_xyz
  1  'x, y, z'
loop_
 _atom_site_type_symbol
 _atom_site_label
 _atom_site_symmetry_multiplicity
 _atom_site_fract_x
 _atom_site_fract_y
 _atom_site_fract_z
 _atom_site_occupancy
  Li  Li0  1  0.21758600  0.24726250  0.05395100  1
  Li  Li1  1  0.71758600  0.25273750  0.55395100  1
  Li  Li2  1  0.21758600  0.74726250  0.44604900  1
  Li  Li3  1  0.71758600  0.75273750  0.94604900  1
  Mn  Mn4  1  0.23635500  0.52333050  0.75664700  1
  Mn  Mn5  1  0.73635500  0.47666950  0.24335300  1
  Mn  Mn6  1  0.73635500  0.97666950  0.25664700  1
  Mn  Mn7  1  0.23635500  0.02333050  0.74335300  1
  P  P8  1  0.72312600  0.21368850  0.90674400  1
  P  P9  1  0.22312600  0.28631150  0.40674400  1
  P  P10  1  0.72312600  0.71368850  0.59325600  1
  P  P11  1  0.22312600  0.78631150  0.09325600  1
  O  O12  1  0.68738200  0.02978750  0.00290000  1
  O  O13  1  0.18738200  0.47021250  0.50290000  1
  O  O14  1  0.68738200  0.52978750  0.49710000  1
  O  O15  1  0.18738200  0.97021250  0.99710000  1
  O  O16  1  0.45176500  0.27743950  0.84718900  1
  O  O17  1  0.95176500  0.22256050  0.34718900  1
  O  O18  1  0.45176500  0.77743950  0.65281100  1
  O  O19  1  0.95176500  0.72256050  0.15281100  1
  O  O20  1  0.89040000  0.18497850  0.75291400  1
  O  O21  1  0.39040000  0.31502150  0.25291400  1
  O  O22  1  0.89040000  0.68497850  0.74708600  1
  O  O23  1  0.39040000  0.81502150  0.24708600  1
  O  O24  1  0.85445200  0.36361350  0.01410600  1
  O  O25  1  0.35445200  0.13638650  0.51410600  1
  O  O26  1  0.85445200  0.86361350  0.48589400  1
  O  O27  1  0.35445200  0.63638650  0.98589400  1
