# generated using pymatgen
data_Li2V3FeO8
_symmetry_space_group_name_H-M   'P 1'
_cell_length_a   5.94056985
_cell_length_b   5.94056985
_cell_length_c   14.58696795
_cell_angle_alpha   90.00000000
_cell_angle_beta   90.00000000
_cell_angle_gamma   120.00000000
_symmetry_Int_Tables_number   1
_chemical_formula_structural   Li2V3FeO8
_chemical_formula_sum   'Li6 V9 Fe3 O24'
_cell_volume   445.81212343
_cell_formula_units_Z   3
loop_
 _symmetry_equiv_pos_site_id
 _symmetry_equiv_pos_as_xyz
  1  'x, y, z'
loop_
 _atom_site_type_symbol
 _atom_site_label
 _atom_site_symmetry_multiplicity
 _atom_site_fract_x
 _atom_site_fract_y
 _atom_site_fract_z
 _atom_site_occupancy
  Li  Li0  1  0.00000000  0.00000000  0.12101800  1
  Li  Li1  1  0.33333333  0.66666667  0.16727667  1
  Li  Li2  1  0.66666667  0.33333333  0.45435133  1
  Li  Li3  1  0.00000000  0.00000000  0.50061000  1
  Li  Li4  1  0.33333333  0.66666667  0.78768467  1
  Li  Li5  1  0.66666667  0.33333333  0.83394333  1
  V  V6  1  0.49386667  0.50613333  0.00209333  1
  V  V7  1  0.01226667  0.50613333  0.00209333  1
  V  V8  1  0.49386667  0.98773333  0.00209333  1
  V  V9  1  0.16053333  0.83946667  0.33542667  1
  V  V10  1  0.67893333  0.83946667  0.33542667  1
  V  V11  1  0.16053333  0.32106667  0.33542667  1
  V  V12  1  0.82720000  0.17280000  0.66876000  1
  V  V13  1  0.34560000  0.17280000  0.66876000  1
  V  V14  1  0.82720000  0.65440000  0.66876000  1
  Fe  Fe15  1  0.66666667  0.33333333  0.21322733  1
  Fe  Fe16  1  0.33333333  0.66666667  0.54656067  1
  Fe  Fe17  1  0.00000000  0.00000000  0.87989400  1
  O  O18  1  0.00000000  0.00000000  0.25815900  1
  O  O19  1  0.17822067  0.35644133  0.07125833  1
  O  O20  1  0.64355867  0.82177933  0.07125833  1
  O  O21  1  0.17822067  0.82177933  0.07125833  1
  O  O22  1  0.49175200  0.50824800  0.25831500  1
  O  O23  1  0.01649600  0.50824800  0.25831500  1
  O  O24  1  0.49175200  0.98350400  0.25831500  1
  O  O25  1  0.66666667  0.33333333  0.07865333  1
  O  O26  1  0.66666667  0.33333333  0.59149233  1
  O  O27  1  0.84488733  0.68977467  0.40459167  1
  O  O28  1  0.31022533  0.15511267  0.40459167  1
  O  O29  1  0.84488733  0.15511267  0.40459167  1
  O  O30  1  0.15841867  0.84158133  0.59164833  1
  O  O31  1  0.68316267  0.84158133  0.59164833  1
  O  O32  1  0.15841867  0.31683733  0.59164833  1
  O  O33  1  0.33333333  0.66666667  0.41198667  1
  O  O34  1  0.33333333  0.66666667  0.92482567  1
  O  O35  1  0.51155400  0.02310800  0.73792500  1
  O  O36  1  0.97689200  0.48844600  0.73792500  1
  O  O37  1  0.51155400  0.48844600  0.73792500  1
  O  O38  1  0.82508533  0.17491467  0.92498167  1
  O  O39  1  0.34982933  0.17491467  0.92498167  1
  O  O40  1  0.82508533  0.65017067  0.92498167  1
  O  O41  1  0.00000000  0.00000000  0.74532000  1
