# generated using pymatgen
data_Li(NiO2)2
_symmetry_space_group_name_H-M   'P 1'
_cell_length_a   2.84611635
_cell_length_b   4.91648222
_cell_length_c   5.13527466
_cell_angle_alpha   108.64667912
_cell_angle_beta   90.19734850
_cell_angle_gamma   92.21863258
_symmetry_Int_Tables_number   1
_chemical_formula_structural   Li(NiO2)2
_chemical_formula_sum   'Li1 Ni2 O4'
_cell_volume   68.02483027
_cell_formula_units_Z   1
loop_
 _symmetry_equiv_pos_site_id
 _symmetry_equiv_pos_as_xyz
  1  'x, y, z'
loop_
 _atom_site_type_symbol
 _atom_site_label
 _atom_site_symmetry_multiplicity
 _atom_site_fract_x
 _atom_site_fract_y
 _atom_site_fract_z
 _atom_site_occupancy
  Li  Li0  1  0.50000000  0.00000000  0.50000000  1
  Ni  Ni1  1  0.50000000  0.50000000  0.00000000  1
  Ni  Ni2  1  0.00000000  0.00000000  0.00000000  1
  O  O3  1  0.48431550  0.77826150  0.79951700  1
  O  O4  1  0.51568450  0.22173850  0.20048300  1
  O  O5  1  0.03261150  0.24433200  0.78590050  1
  O  O6  1  0.96738850  0.75566800  0.21409950  1
