# generated using pymatgen
data_Li4CrCo5O12
_symmetry_space_group_name_H-M   'P 1'
_cell_length_a   4.94219200
_cell_length_b   8.52929400
_cell_length_c   9.91782300
_cell_angle_alpha   90.00000000
_cell_angle_beta   90.44341050
_cell_angle_gamma   90.00000000
_symmetry_Int_Tables_number   1
_chemical_formula_structural   Li4CrCo5O12
_chemical_formula_sum   'Li8 Cr2 Co10 O24'
_cell_volume   418.05752551
_cell_formula_units_Z   2
loop_
 _symmetry_equiv_pos_site_id
 _symmetry_equiv_pos_as_xyz
  1  'x, y, z'
loop_
 _atom_site_type_symbol
 _atom_site_label
 _atom_site_symmetry_multiplicity
 _atom_site_fract_x
 _atom_site_fract_y
 _atom_site_fract_z
 _atom_site_occupancy
  Li  Li0  1  0.40999300  0.24471800  0.74807200  1
  Li  Li1  1  0.59000700  0.24471800  0.25192800  1
  Li  Li2  1  0.40999300  0.75528200  0.74807200  1
  Li  Li3  1  0.59000700  0.75528200  0.25192800  1
  Li  Li4  1  0.90999300  0.74471800  0.74807200  1
  Li  Li5  1  0.09000700  0.74471800  0.25192800  1
  Li  Li6  1  0.90999300  0.25528200  0.74807200  1
  Li  Li7  1  0.09000700  0.25528200  0.25192800  1
  Cr  Cr8  1  0.00000000  0.00000000  0.00000000  1
  Cr  Cr9  1  0.50000000  0.50000000  0.00000000  1
  Co  Co10  1  0.50000000  0.33603600  0.50000000  1
  Co  Co11  1  0.50000000  0.83421400  0.00000000  1
  Co  Co12  1  0.50000000  0.16578600  0.00000000  1
  Co  Co13  1  0.50000000  0.66396400  0.50000000  1
  Co  Co14  1  0.50000000  0.00000000  0.50000000  1
  Co  Co15  1  0.00000000  0.83603600  0.50000000  1
  Co  Co16  1  0.00000000  0.33421400  0.00000000  1
  Co  Co17  1  0.00000000  0.66578600  0.00000000  1
  Co  Co18  1  0.00000000  0.16396400  0.50000000  1
  Co  Co19  1  0.00000000  0.50000000  0.50000000  1
  O  O20  1  0.33392600  0.32825100  0.10584200  1
  O  O21  1  0.66607400  0.32825100  0.89415800  1
  O  O22  1  0.33454700  0.16830900  0.39970700  1
  O  O23  1  0.33454700  0.83169100  0.39970700  1
  O  O24  1  0.66545300  0.16830900  0.60029300  1
  O  O25  1  0.17386300  0.00000000  0.59815000  1
  O  O26  1  0.66545300  0.83169100  0.60029300  1
  O  O27  1  0.33392600  0.67174900  0.10584200  1
  O  O28  1  0.33402600  0.00000000  0.09944100  1
  O  O29  1  0.66607400  0.67174900  0.89415800  1
  O  O30  1  0.66597400  0.00000000  0.90055900  1
  O  O31  1  0.82613700  0.00000000  0.40185000  1
  O  O32  1  0.83392600  0.82825100  0.10584200  1
  O  O33  1  0.16607400  0.82825100  0.89415800  1
  O  O34  1  0.83454700  0.66830900  0.39970700  1
  O  O35  1  0.83454700  0.33169100  0.39970700  1
  O  O36  1  0.16545300  0.66830900  0.60029300  1
  O  O37  1  0.67386300  0.50000000  0.59815000  1
  O  O38  1  0.16545300  0.33169100  0.60029300  1
  O  O39  1  0.83392600  0.17174900  0.10584200  1
  O  O40  1  0.83402600  0.50000000  0.09944100  1
  O  O41  1  0.16607400  0.17174900  0.89415800  1
  O  O42  1  0.16597400  0.50000000  0.90055900  1
  O  O43  1  0.32613700  0.50000000  0.40185000  1
