# generated using pymatgen
data_LiCo2(PO4)2
_symmetry_space_group_name_H-M   'P 1'
_cell_length_a   6.76170200
_cell_length_b   7.78042400
_cell_length_c   6.87061664
_cell_angle_alpha   90.00000000
_cell_angle_beta   90.05901687
_cell_angle_gamma   90.00000000
_symmetry_Int_Tables_number   1
_chemical_formula_structural   LiCo2(PO4)2
_chemical_formula_sum   'Li2 Co4 P4 O16'
_cell_volume   361.45545080
_cell_formula_units_Z   2
loop_
 _symmetry_equiv_pos_site_id
 _symmetry_equiv_pos_as_xyz
  1  'x, y, z'
loop_
 _atom_site_type_symbol
 _atom_site_label
 _atom_site_symmetry_multiplicity
 _atom_site_fract_x
 _atom_site_fract_y
 _atom_site_fract_z
 _atom_site_occupancy
  Li  Li0  1  0.50000000  0.00254700  0.00000000  1
  Li  Li1  1  0.00000000  0.50254700  0.00000000  1
  Co  Co2  1  0.50000000  0.49730700  0.00000000  1
  Co  Co3  1  0.50000000  0.99937200  0.50000000  1
  Co  Co4  1  0.00000000  0.99730700  0.00000000  1
  Co  Co5  1  0.00000000  0.49937200  0.50000000  1
  P  P6  1  0.75032500  0.75045500  0.24891200  1
  P  P7  1  0.24967500  0.75045500  0.75108800  1
  P  P8  1  0.25032500  0.25045500  0.24891200  1
  P  P9  1  0.74967500  0.25045500  0.75108800  1
  O  O10  1  0.42895300  0.87439100  0.74693600  1
  O  O11  1  0.55369750  0.35069150  0.79442900  1
  O  O12  1  0.77438600  0.12717000  0.93365900  1
  O  O13  1  0.27361450  0.14767950  0.43608800  1
  O  O14  1  0.22561400  0.12717000  0.06634100  1
  O  O15  1  0.72638550  0.14767950  0.56391200  1
  O  O16  1  0.44630250  0.35069150  0.20557100  1
  O  O17  1  0.57104700  0.87439100  0.25306400  1
  O  O18  1  0.92895300  0.37439100  0.74693600  1
  O  O19  1  0.05369750  0.85069150  0.79442900  1
  O  O20  1  0.27438600  0.62717000  0.93365900  1
  O  O21  1  0.77361450  0.64767950  0.43608800  1
  O  O22  1  0.72561400  0.62717000  0.06634100  1
  O  O23  1  0.22638550  0.64767950  0.56391200  1
  O  O24  1  0.94630250  0.85069150  0.20557100  1
  O  O25  1  0.07104700  0.37439100  0.25306400  1
