# generated using pymatgen
data_Li5Mn2Fe5O12
_symmetry_space_group_name_H-M   'P 1'
_cell_length_a   5.16164200
_cell_length_b   9.05670400
_cell_length_c   10.05027728
_cell_angle_alpha   90.00000000
_cell_angle_beta   101.26063243
_cell_angle_gamma   90.00000000
_symmetry_Int_Tables_number   1
_chemical_formula_structural   Li5Mn2Fe5O12
_chemical_formula_sum   'Li10 Mn4 Fe10 O24'
_cell_volume   460.78040067
_cell_formula_units_Z   2
loop_
 _symmetry_equiv_pos_site_id
 _symmetry_equiv_pos_as_xyz
  1  'x, y, z'
loop_
 _atom_site_type_symbol
 _atom_site_label
 _atom_site_symmetry_multiplicity
 _atom_site_fract_x
 _atom_site_fract_y
 _atom_site_fract_z
 _atom_site_occupancy
  Li  Li0  1  0.75459600  0.91116600  0.74757700  1
  Li  Li1  1  0.25265950  0.58494050  0.25258000  1
  Li  Li2  1  0.24540400  0.91116600  0.25242300  1
  Li  Li3  1  0.74734050  0.58494050  0.74742000  1
  Li  Li4  1  0.00000000  0.91764400  0.50000000  1
  Li  Li5  1  0.25459600  0.41116600  0.74757700  1
  Li  Li6  1  0.75265950  0.08494050  0.25258000  1
  Li  Li7  1  0.74540400  0.41116600  0.25242300  1
  Li  Li8  1  0.24734050  0.08494050  0.74742000  1
  Li  Li9  1  0.50000000  0.41764400  0.50000000  1
  Mn  Mn10  1  0.50000000  0.75071600  0.50000000  1
  Mn  Mn11  1  0.00000000  0.75354800  0.00000000  1
  Mn  Mn12  1  0.00000000  0.25071600  0.50000000  1
  Mn  Mn13  1  0.50000000  0.25354800  0.00000000  1
  Fe  Fe14  1  0.50000000  0.58189500  0.00000000  1
  Fe  Fe15  1  0.75113450  0.75218950  0.25378200  1
  Fe  Fe16  1  0.24886550  0.75218950  0.74621800  1
  Fe  Fe17  1  0.50000000  0.92237700  0.00000000  1
  Fe  Fe18  1  0.00000000  0.57910000  0.50000000  1
  Fe  Fe19  1  0.00000000  0.08189500  0.00000000  1
  Fe  Fe20  1  0.25113450  0.25218950  0.25378200  1
  Fe  Fe21  1  0.74886550  0.25218950  0.74621800  1
  Fe  Fe22  1  0.00000000  0.42237700  0.00000000  1
  Fe  Fe23  1  0.50000000  0.07910000  0.50000000  1
  O  O24  1  0.62678050  0.60139850  0.38381600  1
  O  O25  1  0.37321950  0.60139850  0.61618400  1
  O  O26  1  0.64350500  0.76007100  0.88604800  1
  O  O27  1  0.35649500  0.76007100  0.11395200  1
  O  O28  1  0.60290500  0.90762700  0.38895900  1
  O  O29  1  0.39709500  0.90762700  0.61104100  1
  O  O30  1  0.12235750  0.58127650  0.88165400  1
  O  O31  1  0.87764250  0.58127650  0.11834600  1
  O  O32  1  0.13976600  0.73900800  0.38530300  1
  O  O33  1  0.86023400  0.73900800  0.61469700  1
  O  O34  1  0.14017200  0.90968400  0.87333700  1
  O  O35  1  0.85982800  0.90968400  0.12666300  1
  O  O36  1  0.12678050  0.10139850  0.38381600  1
  O  O37  1  0.87321950  0.10139850  0.61618400  1
  O  O38  1  0.14350500  0.26007100  0.88604800  1
  O  O39  1  0.85649500  0.26007100  0.11395200  1
  O  O40  1  0.10290500  0.40762700  0.38895900  1
  O  O41  1  0.89709500  0.40762700  0.61104100  1
  O  O42  1  0.62235750  0.08127650  0.88165400  1
  O  O43  1  0.37764250  0.08127650  0.11834600  1
  O  O44  1  0.63976600  0.23900800  0.38530300  1
  O  O45  1  0.36023400  0.23900800  0.61469700  1
  O  O46  1  0.64017200  0.40968400  0.87333700  1
  O  O47  1  0.35982800  0.40968400  0.12666300  1
