# generated using pymatgen
data_Li4Mn3O5F3
_symmetry_space_group_name_H-M   'P 1'
_cell_length_a   13.14418520
_cell_length_b   2.93304700
_cell_length_c   10.24133013
_cell_angle_alpha   90.00000000
_cell_angle_beta   129.68608266
_cell_angle_gamma   90.00000000
_symmetry_Int_Tables_number   1
_chemical_formula_structural   Li4Mn3O5F3
_chemical_formula_sum   'Li8 Mn6 O10 F6'
_cell_volume   303.84251877
_cell_formula_units_Z   2
loop_
 _symmetry_equiv_pos_site_id
 _symmetry_equiv_pos_as_xyz
  1  'x, y, z'
loop_
 _atom_site_type_symbol
 _atom_site_label
 _atom_site_symmetry_multiplicity
 _atom_site_fract_x
 _atom_site_fract_y
 _atom_site_fract_z
 _atom_site_occupancy
  Li  Li0  1  0.49669850  0.00000000  0.75630800  1
  Li  Li1  1  0.52898300  0.50000000  0.52045700  1
  Li  Li2  1  0.48651100  0.00000000  0.23861100  1
  Li  Li3  1  0.00514900  0.00000000  0.00281100  1
  Li  Li4  1  0.99669850  0.50000000  0.75630800  1
  Li  Li5  1  0.02898300  0.00000000  0.52045700  1
  Li  Li6  1  0.98651100  0.50000000  0.23861100  1
  Li  Li7  1  0.50514900  0.50000000  0.00281100  1
  Mn  Mn8  1  0.24660500  0.00000000  0.38673000  1
  Mn  Mn9  1  0.74477725  0.50000000  0.85747600  1
  Mn  Mn10  1  0.24415150  0.50000000  0.12303600  1
  Mn  Mn11  1  0.74660500  0.50000000  0.38673000  1
  Mn  Mn12  1  0.24477725  0.00000000  0.85747600  1
  Mn  Mn13  1  0.74415150  0.00000000  0.12303600  1
  O  O14  1  0.63361275  0.00000000  0.70497400  1
  O  O15  1  0.34527375  0.50000000  0.03502500  1
  O  O16  1  0.14018575  0.50000000  0.19269900  1
  O  O17  1  0.63988600  0.50000000  0.96552700  1
  O  O18  1  0.35323250  0.00000000  0.27869600  1
  O  O19  1  0.13361275  0.50000000  0.70497400  1
  O  O20  1  0.84527375  0.00000000  0.03502500  1
  O  O21  1  0.64018575  0.00000000  0.19269900  1
  O  O22  1  0.13988600  0.00000000  0.96552700  1
  O  O23  1  0.85323250  0.50000000  0.27869600  1
  F  F24  1  0.59124400  0.50000000  0.39613100  1
  F  F25  1  0.90142200  0.50000000  0.84327400  1
  F  F26  1  0.39202150  0.50000000  0.57324100  1
  F  F27  1  0.09124400  0.00000000  0.39613100  1
  F  F28  1  0.40142200  0.00000000  0.84327400  1
  F  F29  1  0.89202150  0.00000000  0.57324100  1
