# generated using pymatgen
data_Mn6OF11
_symmetry_space_group_name_H-M   'P 1'
_cell_length_a   6.91336200
_cell_length_b   21.17645800
_cell_length_c   3.30382900
_cell_angle_alpha   90.00000000
_cell_angle_beta   90.00000000
_cell_angle_gamma   90.00000000
_symmetry_Int_Tables_number   1
_chemical_formula_structural   Mn6OF11
_chemical_formula_sum   'Mn12 O2 F22'
_cell_volume   483.68228370
_cell_formula_units_Z   2
loop_
 _symmetry_equiv_pos_site_id
 _symmetry_equiv_pos_as_xyz
  1  'x, y, z'
loop_
 _atom_site_type_symbol
 _atom_site_label
 _atom_site_symmetry_multiplicity
 _atom_site_fract_x
 _atom_site_fract_y
 _atom_site_fract_z
 _atom_site_occupancy
  Mn  Mn0  1  0.01552300  0.00000000  0.00000000  1
  Mn  Mn1  1  0.49941150  0.33331650  0.50000000  1
  Mn  Mn2  1  0.47792300  0.00000000  0.50000000  1
  Mn  Mn3  1  0.50011450  0.16595850  0.00000000  1
  Mn  Mn4  1  0.00011450  0.33404150  0.00000000  1
  Mn  Mn5  1  0.99941150  0.16668350  0.50000000  1
  Mn  Mn6  1  0.51552300  0.50000000  0.00000000  1
  Mn  Mn7  1  0.99941150  0.83331650  0.50000000  1
  Mn  Mn8  1  0.97792300  0.50000000  0.50000000  1
  Mn  Mn9  1  0.00011450  0.66595850  0.00000000  1
  Mn  Mn10  1  0.50011450  0.83404150  0.00000000  1
  Mn  Mn11  1  0.49941150  0.66668350  0.50000000  1
  O  O12  1  0.30600800  0.00000000  0.00000000  1
  O  O13  1  0.80600800  0.50000000  0.00000000  1
  F  F14  1  0.49797800  0.43565200  0.50000000  1
  F  F15  1  0.69473100  0.33329800  0.00000000  1
  F  F16  1  0.69667800  0.00000000  0.00000000  1
  F  F17  1  0.19473100  0.16670200  0.00000000  1
  F  F18  1  0.49992000  0.23206600  0.50000000  1
  F  F19  1  0.00464100  0.39839100  0.50000000  1
  F  F20  1  0.99992000  0.26793400  0.50000000  1
  F  F21  1  0.50464100  0.10160900  0.50000000  1
  F  F22  1  0.80530600  0.16678400  0.00000000  1
  F  F23  1  0.30530600  0.33321600  0.00000000  1
  F  F24  1  0.99797800  0.06434800  0.50000000  1
  F  F25  1  0.99797800  0.93565200  0.50000000  1
  F  F26  1  0.19473100  0.83329800  0.00000000  1
  F  F27  1  0.19667800  0.50000000  0.00000000  1
  F  F28  1  0.69473100  0.66670200  0.00000000  1
  F  F29  1  0.99992000  0.73206600  0.50000000  1
  F  F30  1  0.50464100  0.89839100  0.50000000  1
  F  F31  1  0.49992000  0.76793400  0.50000000  1
  F  F32  1  0.00464100  0.60160900  0.50000000  1
  F  F33  1  0.30530600  0.66678400  0.00000000  1
  F  F34  1  0.80530600  0.83321600  0.00000000  1
  F  F35  1  0.49797800  0.56434800  0.50000000  1
