# generated using pymatgen
data_Li2MnCr3O8
_symmetry_space_group_name_H-M   'P 1'
_cell_length_a   10.22339926
_cell_length_b   5.89455193
_cell_length_c   5.99488397
_cell_angle_alpha   90.00000000
_cell_angle_beta   124.68465188
_cell_angle_gamma   90.00000000
_symmetry_Int_Tables_number   1
_chemical_formula_structural   Li2MnCr3O8
_chemical_formula_sum   'Li4 Mn2 Cr6 O16'
_cell_volume   297.06764103
_cell_formula_units_Z   2
loop_
 _symmetry_equiv_pos_site_id
 _symmetry_equiv_pos_as_xyz
  1  'x, y, z'
loop_
 _atom_site_type_symbol
 _atom_site_label
 _atom_site_symmetry_multiplicity
 _atom_site_fract_x
 _atom_site_fract_y
 _atom_site_fract_z
 _atom_site_occupancy
  Li  Li0  1  0.75000000  0.25000000  0.00000000  1
  Li  Li1  1  0.75000000  0.75000000  0.00000000  1
  Li  Li2  1  0.25000000  0.75000000  0.00000000  1
  Li  Li3  1  0.25000000  0.25000000  0.00000000  1
  Mn  Mn4  1  0.50000000  0.50000000  0.50000000  1
  Mn  Mn5  1  0.00000000  0.00000000  0.50000000  1
  Cr  Cr6  1  0.75000000  0.25000000  0.50000000  1
  Cr  Cr7  1  0.00000000  0.50000000  0.50000000  1
  Cr  Cr8  1  0.75000000  0.75000000  0.50000000  1
  Cr  Cr9  1  0.25000000  0.75000000  0.50000000  1
  Cr  Cr10  1  0.50000000  0.00000000  0.50000000  1
  Cr  Cr11  1  0.25000000  0.25000000  0.50000000  1
  O  O12  1  0.49096150  0.74915650  0.70385000  1
  O  O13  1  0.22947950  0.50000000  0.71042200  1
  O  O14  1  0.49096150  0.25084350  0.70385000  1
  O  O15  1  0.22916350  0.00000000  0.71043900  1
  O  O16  1  0.77083650  0.00000000  0.28956100  1
  O  O17  1  0.50903850  0.74915650  0.29615000  1
  O  O18  1  0.77052050  0.50000000  0.28957800  1
  O  O19  1  0.50903850  0.25084350  0.29615000  1
  O  O20  1  0.99096150  0.24915650  0.70385000  1
  O  O21  1  0.72947950  0.00000000  0.71042200  1
  O  O22  1  0.99096150  0.75084350  0.70385000  1
  O  O23  1  0.72916350  0.50000000  0.71043900  1
  O  O24  1  0.27083650  0.50000000  0.28956100  1
  O  O25  1  0.00903850  0.24915650  0.29615000  1
  O  O26  1  0.27052050  0.00000000  0.28957800  1
  O  O27  1  0.00903850  0.75084350  0.29615000  1
