# generated using pymatgen
data_Li3Fe2(SiO4)2
_symmetry_space_group_name_H-M   'P 1'
_cell_length_a   5.13260500
_cell_length_b   10.63019100
_cell_length_c   6.59877055
_cell_angle_alpha   90.00000000
_cell_angle_beta   90.52833827
_cell_angle_gamma   90.00000000
_symmetry_Int_Tables_number   1
_chemical_formula_structural   Li3Fe2(SiO4)2
_chemical_formula_sum   'Li6 Fe4 Si4 O16'
_cell_volume   360.01738529
_cell_formula_units_Z   2
loop_
 _symmetry_equiv_pos_site_id
 _symmetry_equiv_pos_as_xyz
  1  'x, y, z'
loop_
 _atom_site_type_symbol
 _atom_site_label
 _atom_site_symmetry_multiplicity
 _atom_site_fract_x
 _atom_site_fract_y
 _atom_site_fract_z
 _atom_site_occupancy
  Li  Li0  1  0.43633600  0.83964500  0.73786400  1
  Li  Li1  1  0.56366400  0.33964500  0.26213600  1
  Li  Li2  1  0.93387100  0.65579900  0.25010500  1
  Li  Li3  1  0.95608100  0.42601900  0.01921700  1
  Li  Li4  1  0.04391900  0.92601900  0.98078300  1
  Li  Li5  1  0.06612900  0.15579900  0.74989500  1
  Fe  Fe6  1  0.91806500  0.65865200  0.73349900  1
  Fe  Fe7  1  0.08193500  0.15865200  0.26650100  1
  Fe  Fe8  1  0.43952700  0.83624400  0.25053500  1
  Fe  Fe9  1  0.56047300  0.33624400  0.74946500  1
  Si  Si10  1  0.05914200  0.41171800  0.49639800  1
  Si  Si11  1  0.94085800  0.91171800  0.50360200  1
  Si  Si12  1  0.57000400  0.09364100  0.00990200  1
  Si  Si13  1  0.42999600  0.59364100  0.99009800  1
  O  O14  1  0.93153300  0.34233800  0.70535800  1
  O  O15  1  0.05019700  0.84315000  0.71026000  1
  O  O16  1  0.62248700  0.88588800  0.48276400  1
  O  O17  1  0.00656100  0.05993100  0.50903100  1
  O  O18  1  0.37751300  0.38588800  0.51723600  1
  O  O19  1  0.99343900  0.55993100  0.49096900  1
  O  O20  1  0.94980300  0.34315000  0.28974000  1
  O  O21  1  0.06846700  0.84233800  0.29464200  1
  O  O22  1  0.46120700  0.16821000  0.20587800  1
  O  O23  1  0.54817100  0.67011100  0.19128100  1
  O  O24  1  0.54421300  0.44447800  0.98936400  1
  O  O25  1  0.11052900  0.59098000  0.99926900  1
  O  O26  1  0.45578700  0.94447800  0.01063600  1
  O  O27  1  0.88947100  0.09098000  0.00073100  1
  O  O28  1  0.45182900  0.17011100  0.80871900  1
  O  O29  1  0.53879300  0.66821000  0.79412200  1
