# generated using pymatgen
data_Li2Fe2(CO3)3
_symmetry_space_group_name_H-M   'P 1'
_cell_length_a   7.09895703
_cell_length_b   9.95282000
_cell_length_c   4.91044152
_cell_angle_alpha   90.00000000
_cell_angle_beta   90.00000000
_cell_angle_gamma   90.00000000
_symmetry_Int_Tables_number   1
_chemical_formula_structural   Li2Fe2(CO3)3
_chemical_formula_sum   'Li4 Fe4 C6 O18'
_cell_volume   346.94548482
_cell_formula_units_Z   2
loop_
 _symmetry_equiv_pos_site_id
 _symmetry_equiv_pos_as_xyz
  1  'x, y, z'
loop_
 _atom_site_type_symbol
 _atom_site_label
 _atom_site_symmetry_multiplicity
 _atom_site_fract_x
 _atom_site_fract_y
 _atom_site_fract_z
 _atom_site_occupancy
  Li  Li0  1  0.89468250  0.00000000  0.00000000  1
  Li  Li1  1  0.61962300  0.00000000  0.50000000  1
  Li  Li2  1  0.39468250  0.50000000  0.00000000  1
  Li  Li3  1  0.11962300  0.50000000  0.50000000  1
  Fe  Fe4  1  0.54597875  0.71857325  0.50000000  1
  Fe  Fe5  1  0.54597875  0.28142675  0.50000000  1
  Fe  Fe6  1  0.04597875  0.21857325  0.50000000  1
  Fe  Fe7  1  0.04597875  0.78142675  0.50000000  1
  C  C8  1  0.24775625  0.00000000  0.50000000  1
  C  C9  1  0.64975200  0.79785400  0.00000000  1
  C  C10  1  0.64975200  0.20214600  0.00000000  1
  C  C11  1  0.74775625  0.50000000  0.50000000  1
  C  C12  1  0.14975200  0.29785400  0.00000000  1
  C  C13  1  0.14975200  0.70214600  0.00000000  1
  O  O14  1  0.05999875  0.00000000  0.50000000  1
  O  O15  1  0.55996050  0.68571100  0.00000000  1
  O  O16  1  0.55996050  0.31428900  0.00000000  1
  O  O17  1  0.33197725  0.88611925  0.50000000  1
  O  O18  1  0.33197725  0.11388075  0.50000000  1
  O  O19  1  0.69478250  0.85472950  0.22938400  1
  O  O20  1  0.69478250  0.14527050  0.22938400  1
  O  O21  1  0.69478250  0.85472950  0.77061600  1
  O  O22  1  0.69478250  0.14527050  0.77061600  1
  O  O23  1  0.55999875  0.50000000  0.50000000  1
  O  O24  1  0.05996050  0.18571100  0.00000000  1
  O  O25  1  0.05996050  0.81428900  0.00000000  1
  O  O26  1  0.83197725  0.38611925  0.50000000  1
  O  O27  1  0.83197725  0.61388075  0.50000000  1
  O  O28  1  0.19478250  0.35472950  0.22938400  1
  O  O29  1  0.19478250  0.64527050  0.22938400  1
  O  O30  1  0.19478250  0.35472950  0.77061600  1
  O  O31  1  0.19478250  0.64527050  0.77061600  1
