# generated using pymatgen
data_Cr(SO4)2
_symmetry_space_group_name_H-M   'P 1'
_cell_length_a   8.35404778
_cell_length_b   8.35404778
_cell_length_c   22.42747595
_cell_angle_alpha   90.00000000
_cell_angle_beta   90.00000000
_cell_angle_gamma   120.00000000
_symmetry_Int_Tables_number   1
_chemical_formula_structural   Cr(SO4)2
_chemical_formula_sum   'Cr9 S18 O72'
_cell_volume   1355.51691300
_cell_formula_units_Z   9
loop_
 _symmetry_equiv_pos_site_id
 _symmetry_equiv_pos_as_xyz
  1  'x, y, z'
loop_
 _atom_site_type_symbol
 _atom_site_label
 _atom_site_symmetry_multiplicity
 _atom_site_fract_x
 _atom_site_fract_y
 _atom_site_fract_z
 _atom_site_occupancy
  Cr  Cr0  1  0.33333333  0.66666667  0.02219567  1
  Cr  Cr1  1  0.33333333  0.66666667  0.31174267  1
  Cr  Cr2  1  0.66666667  0.33333333  0.18314233  1
  Cr  Cr3  1  0.00000000  0.00000000  0.35552900  1
  Cr  Cr4  1  0.00000000  0.00000000  0.64507600  1
  Cr  Cr5  1  0.33333333  0.66666667  0.51647567  1
  Cr  Cr6  1  0.66666667  0.33333333  0.68886233  1
  Cr  Cr7  1  0.66666667  0.33333333  0.97840933  1
  Cr  Cr8  1  0.00000000  0.00000000  0.84980900  1
  S  S9  1  0.66149033  0.61523067  0.08403467  1
  S  S10  1  0.95374033  0.33850967  0.08403467  1
  S  S11  1  0.38476933  0.04625967  0.08403467  1
  S  S12  1  0.28614233  0.29001667  0.24975367  1
  S  S13  1  0.70998333  0.99612567  0.24975367  1
  S  S14  1  0.00387433  0.71385767  0.24975367  1
  S  S15  1  0.32815700  0.94856400  0.41736800  1
  S  S16  1  0.62040700  0.67184300  0.41736800  1
  S  S17  1  0.05143600  0.37959300  0.41736800  1
  S  S18  1  0.95280900  0.62335000  0.58308700  1
  S  S19  1  0.37665000  0.32945900  0.58308700  1
  S  S20  1  0.67054100  0.04719100  0.58308700  1
  S  S21  1  0.99482367  0.28189733  0.75070133  1
  S  S22  1  0.28707367  0.00517633  0.75070133  1
  S  S23  1  0.71810267  0.71292633  0.75070133  1
  S  S24  1  0.61947567  0.95668333  0.91642033  1
  S  S25  1  0.04331667  0.66279233  0.91642033  1
  S  S26  1  0.33720767  0.38052433  0.91642033  1
  O  O27  1  0.98814733  0.79129667  0.30769667  1
  O  O28  1  0.20870333  0.19685067  0.30769667  1
  O  O29  1  0.85046833  0.75703267  0.09480767  1
  O  O30  1  0.80314933  0.01185267  0.30769667  1
  O  O31  1  0.58131233  0.47145167  0.13225567  1
  O  O32  1  0.53208733  0.68688267  0.07743067  1
  O  O33  1  0.15479533  0.46791267  0.07743067  1
  O  O34  1  0.90656433  0.14953167  0.09480767  1
  O  O35  1  0.31311733  0.84520467  0.07743067  1
  O  O36  1  0.44215300  0.25766000  0.23610600  1
  O  O37  1  0.14976800  0.23451400  0.20205600  1
  O  O38  1  0.76548600  0.91525400  0.20205600  1
  O  O39  1  0.89013933  0.41868767  0.13225567  1
  O  O40  1  0.52854833  0.10986067  0.13225567  1
  O  O41  1  0.24296733  0.09343567  0.09480767  1
  O  O42  1  0.36766833  0.49646067  0.25825767  1
  O  O43  1  0.74234000  0.18449300  0.23610600  1
  O  O44  1  0.50353933  0.87120767  0.25825767  1
  O  O45  1  0.12879233  0.63233167  0.25825767  1
  O  O46  1  0.08474600  0.85023200  0.20205600  1
  O  O47  1  0.86815767  0.34419533  0.02491633  1
  O  O48  1  0.81550700  0.55784700  0.23610600  1
  O  O49  1  0.47603767  0.13184233  0.02491633  1
  O  O50  1  0.65580467  0.52396233  0.02491633  1
  O  O51  1  0.65481400  0.12463000  0.64103000  1
  O  O52  1  0.87537000  0.53018400  0.64103000  1
  O  O53  1  0.51713500  0.09036600  0.42814100  1
  O  O54  1  0.46981600  0.34518600  0.64103000  1
  O  O55  1  0.24797900  0.80478500  0.46558900  1
  O  O56  1  0.19875400  0.02021600  0.41076400  1
  O  O57  1  0.82146200  0.80124600  0.41076400  1
  O  O58  1  0.57323100  0.48286500  0.42814100  1
  O  O59  1  0.97978400  0.17853800  0.41076400  1
  O  O60  1  0.10881967  0.59099333  0.56943933  1
  O  O61  1  0.81643467  0.56784733  0.53538933  1
  O  O62  1  0.43215267  0.24858733  0.53538933  1
  O  O63  1  0.55680600  0.75202100  0.46558900  1
  O  O64  1  0.19521500  0.44319400  0.46558900  1
  O  O65  1  0.90963400  0.42676900  0.42814100  1
  O  O66  1  0.03433500  0.82979400  0.59159100  1
  O  O67  1  0.40900667  0.51782633  0.56943933  1
  O  O68  1  0.17020600  0.20454100  0.59159100  1
  O  O69  1  0.79545900  0.96566500  0.59159100  1
  O  O70  1  0.75141267  0.18356533  0.53538933  1
  O  O71  1  0.53482433  0.67752867  0.35824967  1
  O  O72  1  0.48217367  0.89118033  0.56943933  1
  O  O73  1  0.14270433  0.46517567  0.35824967  1
  O  O74  1  0.32247133  0.85729567  0.35824967  1
  O  O75  1  0.32148067  0.45796333  0.97436333  1
  O  O76  1  0.54203667  0.86351733  0.97436333  1
  O  O77  1  0.18380167  0.42369933  0.76147433  1
  O  O78  1  0.13648267  0.67851933  0.97436333  1
  O  O79  1  0.91464567  0.13811833  0.79892233  1
  O  O80  1  0.86542067  0.35354933  0.74409733  1
  O  O81  1  0.48812867  0.13457933  0.74409733  1
  O  O82  1  0.23989767  0.81619833  0.76147433  1
  O  O83  1  0.64645067  0.51187133  0.74409733  1
  O  O84  1  0.77548633  0.92432667  0.90277267  1
  O  O85  1  0.48310133  0.90118067  0.86872267  1
  O  O86  1  0.09881933  0.58192067  0.86872267  1
  O  O87  1  0.22347267  0.08535433  0.79892233  1
  O  O88  1  0.86188167  0.77652733  0.79892233  1
  O  O89  1  0.57630067  0.76010233  0.76147433  1
  O  O90  1  0.70100167  0.16312733  0.92492433  1
  O  O91  1  0.07567333  0.85115967  0.90277267  1
  O  O92  1  0.83687267  0.53787433  0.92492433  1
  O  O93  1  0.46212567  0.29899833  0.92492433  1
  O  O94  1  0.41807933  0.51689867  0.86872267  1
  O  O95  1  0.20149100  0.01086200  0.69158300  1
  O  O96  1  0.14884033  0.22451367  0.90277267  1
  O  O97  1  0.80937100  0.79850900  0.69158300  1
  O  O98  1  0.98913800  0.19062900  0.69158300  1
