# generated using pymatgen
data_NaV5O8
_symmetry_space_group_name_H-M   'P 1'
_cell_length_a   15.46434528
_cell_length_b   3.05783000
_cell_length_c   7.25670436
_cell_angle_alpha   90.00000000
_cell_angle_beta   106.20014432
_cell_angle_gamma   90.00000000
_symmetry_Int_Tables_number   1
_chemical_formula_structural   NaV5O8
_chemical_formula_sum   'Na2 V10 O16'
_cell_volume   329.52476607
_cell_formula_units_Z   2
loop_
 _symmetry_equiv_pos_site_id
 _symmetry_equiv_pos_as_xyz
  1  'x, y, z'
loop_
 _atom_site_type_symbol
 _atom_site_label
 _atom_site_symmetry_multiplicity
 _atom_site_fract_x
 _atom_site_fract_y
 _atom_site_fract_z
 _atom_site_occupancy
  Na  Na0  1  0.00000000  0.00000000  0.50000000  1
  Na  Na1  1  0.50000000  0.50000000  0.50000000  1
  V  V2  1  0.00000000  0.50000000  0.00000000  1
  V  V3  1  0.84630925  0.00000000  0.07114500  1
  V  V4  1  0.65369075  0.50000000  0.92885500  1
  V  V5  1  0.79820250  0.00000000  0.66794300  1
  V  V6  1  0.70179750  0.50000000  0.33205700  1
  V  V7  1  0.50000000  0.00000000  0.00000000  1
  V  V8  1  0.34630925  0.50000000  0.07114500  1
  V  V9  1  0.15369075  0.00000000  0.92885500  1
  V  V10  1  0.29820250  0.50000000  0.66794300  1
  V  V11  1  0.20179750  0.00000000  0.33205700  1
  O  O12  1  0.91833725  0.00000000  0.87601800  1
  O  O13  1  0.58166275  0.50000000  0.12398200  1
  O  O14  1  0.92439475  0.50000000  0.19881500  1
  O  O15  1  0.57560525  0.00000000  0.80118500  1
  O  O16  1  0.82632075  0.50000000  0.51864000  1
  O  O17  1  0.67367925  0.00000000  0.48136000  1
  O  O18  1  0.76942375  0.50000000  0.85759400  1
  O  O19  1  0.73057625  0.00000000  0.14240600  1
  O  O20  1  0.41833725  0.50000000  0.87601800  1
  O  O21  1  0.08166275  0.00000000  0.12398200  1
  O  O22  1  0.42439475  0.00000000  0.19881500  1
  O  O23  1  0.07560525  0.50000000  0.80118500  1
  O  O24  1  0.32632075  0.00000000  0.51864000  1
  O  O25  1  0.17367925  0.50000000  0.48136000  1
  O  O26  1  0.26942375  0.00000000  0.85759400  1
  O  O27  1  0.23057625  0.50000000  0.14240600  1
