# generated using pymatgen
data_Li(ReO3)4
_symmetry_space_group_name_H-M   'P 1'
_cell_length_a   7.46859600
_cell_length_b   7.49197200
_cell_length_c   7.54432000
_cell_angle_alpha   90.00000000
_cell_angle_beta   90.00000000
_cell_angle_gamma   90.00000000
_symmetry_Int_Tables_number   1
_chemical_formula_structural   Li(ReO3)4
_chemical_formula_sum   'Li2 Re8 O24'
_cell_volume   422.13874481
_cell_formula_units_Z   2
loop_
 _symmetry_equiv_pos_site_id
 _symmetry_equiv_pos_as_xyz
  1  'x, y, z'
loop_
 _atom_site_type_symbol
 _atom_site_label
 _atom_site_symmetry_multiplicity
 _atom_site_fract_x
 _atom_site_fract_y
 _atom_site_fract_z
 _atom_site_occupancy
  Li  Li0  1  0.00000000  0.50000000  0.00000000  1
  Li  Li1  1  0.50000000  0.00000000  0.50000000  1
  Re  Re2  1  0.25000000  0.75000000  0.25000000  1
  Re  Re3  1  0.75000000  0.25000000  0.25000000  1
  Re  Re4  1  0.25000000  0.25000000  0.75000000  1
  Re  Re5  1  0.25000000  0.25000000  0.25000000  1
  Re  Re6  1  0.75000000  0.25000000  0.75000000  1
  Re  Re7  1  0.25000000  0.75000000  0.75000000  1
  Re  Re8  1  0.75000000  0.75000000  0.25000000  1
  Re  Re9  1  0.75000000  0.75000000  0.75000000  1
  O  O10  1  0.29197300  0.78689000  0.50000000  1
  O  O11  1  0.71730200  0.00000000  0.21594900  1
  O  O12  1  0.28269800  0.00000000  0.21594900  1
  O  O13  1  0.00000000  0.21571450  0.71881450  1
  O  O14  1  0.00000000  0.21571450  0.28118550  1
  O  O15  1  0.29197300  0.21311000  0.50000000  1
  O  O16  1  0.20802700  0.28689000  0.00000000  1
  O  O17  1  0.50000000  0.28428550  0.78118550  1
  O  O18  1  0.50000000  0.28428550  0.21881450  1
  O  O19  1  0.21730200  0.50000000  0.28405100  1
  O  O20  1  0.78269800  0.50000000  0.28405100  1
  O  O21  1  0.20802700  0.71311000  0.00000000  1
  O  O22  1  0.79197300  0.28689000  0.00000000  1
  O  O23  1  0.21730200  0.50000000  0.71594900  1
  O  O24  1  0.78269800  0.50000000  0.71594900  1
  O  O25  1  0.50000000  0.71571450  0.21881450  1
  O  O26  1  0.50000000  0.71571450  0.78118550  1
  O  O27  1  0.79197300  0.71311000  0.00000000  1
  O  O28  1  0.70802700  0.78689000  0.50000000  1
  O  O29  1  0.00000000  0.78428550  0.28118550  1
  O  O30  1  0.00000000  0.78428550  0.71881450  1
  O  O31  1  0.71730200  0.00000000  0.78405100  1
  O  O32  1  0.28269800  0.00000000  0.78405100  1
  O  O33  1  0.70802700  0.21311000  0.50000000  1
