# generated using pymatgen
data_Li5Mn4P4O16F
_symmetry_space_group_name_H-M   'P 1'
_cell_length_a   11.15983200
_cell_length_b   11.15983200
_cell_length_c   5.28003400
_cell_angle_alpha   90.00000000
_cell_angle_beta   90.00000000
_cell_angle_gamma   90.00000000
_symmetry_Int_Tables_number   1
_chemical_formula_structural   Li5Mn4P4O16F
_chemical_formula_sum   'Li10 Mn8 P8 O32 F2'
_cell_volume   657.58520384
_cell_formula_units_Z   2
loop_
 _symmetry_equiv_pos_site_id
 _symmetry_equiv_pos_as_xyz
  1  'x, y, z'
loop_
 _atom_site_type_symbol
 _atom_site_label
 _atom_site_symmetry_multiplicity
 _atom_site_fract_x
 _atom_site_fract_y
 _atom_site_fract_z
 _atom_site_occupancy
  Li  Li0  1  0.00000000  0.00000000  0.50000000  1
  Li  Li1  1  0.43726950  0.89203850  0.44812250  1
  Li  Li2  1  0.60796150  0.93726950  0.05187750  1
  Li  Li3  1  0.39203850  0.06273050  0.05187750  1
  Li  Li4  1  0.56273050  0.10796150  0.44812250  1
  Li  Li5  1  0.50000000  0.50000000  0.00000000  1
  Li  Li6  1  0.93726950  0.39203850  0.94812250  1
  Li  Li7  1  0.10796150  0.43726950  0.55187750  1
  Li  Li8  1  0.89203850  0.56273050  0.55187750  1
  Li  Li9  1  0.06273050  0.60796150  0.94812250  1
  Mn  Mn10  1  0.61804000  0.66588500  0.49931600  1
  Mn  Mn11  1  0.16588500  0.88196000  0.00068400  1
  Mn  Mn12  1  0.83411500  0.11804000  0.00068400  1
  Mn  Mn13  1  0.38196000  0.33411500  0.49931600  1
  Mn  Mn14  1  0.11804000  0.16588500  0.99931600  1
  Mn  Mn15  1  0.66588500  0.38196000  0.50068400  1
  Mn  Mn16  1  0.33411500  0.61804000  0.50068400  1
  Mn  Mn17  1  0.88196000  0.83411500  0.99931600  1
  P  P18  1  0.40972800  0.75510300  0.97005800  1
  P  P19  1  0.74489700  0.90972800  0.52994200  1
  P  P20  1  0.25510300  0.09027200  0.52994200  1
  P  P21  1  0.59027200  0.24489700  0.97005800  1
  P  P22  1  0.90972800  0.25510300  0.47005800  1
  P  P23  1  0.24489700  0.40972800  0.02994200  1
  P  P24  1  0.75510300  0.59027200  0.02994200  1
  P  P25  1  0.09027200  0.74489700  0.47005800  1
  O  O26  1  0.46455150  0.66449350  0.16317550  1
  O  O27  1  0.46573550  0.73847150  0.69679650  1
  O  O28  1  0.23081250  0.22571150  0.56205950  1
  O  O29  1  0.72571150  0.26918750  0.93794050  1
  O  O30  1  0.43512800  0.88440200  0.06100000  1
  O  O31  1  0.61559800  0.93512800  0.43900000  1
  O  O32  1  0.83550650  0.96455150  0.33682450  1
  O  O33  1  0.76152850  0.96573550  0.80320350  1
  O  O34  1  0.23847150  0.03426450  0.80320350  1
  O  O35  1  0.16449350  0.03544850  0.33682450  1
  O  O36  1  0.38440200  0.06487200  0.43900000  1
  O  O37  1  0.56487200  0.11559800  0.06100000  1
  O  O38  1  0.27428850  0.73081250  0.93794050  1
  O  O39  1  0.76918750  0.77428850  0.56205950  1
  O  O40  1  0.53426450  0.26152850  0.69679650  1
  O  O41  1  0.53544850  0.33550650  0.16317550  1
  O  O42  1  0.96455150  0.16449350  0.66317550  1
  O  O43  1  0.96573550  0.23847150  0.19679650  1
  O  O44  1  0.73081250  0.72571150  0.06205950  1
  O  O45  1  0.22571150  0.76918750  0.43794050  1
  O  O46  1  0.93512800  0.38440200  0.56100000  1
  O  O47  1  0.11559800  0.43512800  0.93900000  1
  O  O48  1  0.33550650  0.46455150  0.83682450  1
  O  O49  1  0.26152850  0.46573550  0.30320350  1
  O  O50  1  0.73847150  0.53426450  0.30320350  1
  O  O51  1  0.66449350  0.53544850  0.83682450  1
  O  O52  1  0.88440200  0.56487200  0.93900000  1
  O  O53  1  0.06487200  0.61559800  0.56100000  1
  O  O54  1  0.77428850  0.23081250  0.43794050  1
  O  O55  1  0.26918750  0.27428850  0.06205950  1
  O  O56  1  0.03426450  0.76152850  0.19679650  1
  O  O57  1  0.03544850  0.83550650  0.66317550  1
  F  F58  1  0.00000000  0.00000000  0.00000000  1
  F  F59  1  0.50000000  0.50000000  0.50000000  1
