# generated using pymatgen
data_Li9Cr5O12
_symmetry_space_group_name_H-M   'P 1'
_cell_length_a   5.18916001
_cell_length_b   9.10827600
_cell_length_c   10.05454690
_cell_angle_alpha   90.00000000
_cell_angle_beta   96.15389160
_cell_angle_gamma   90.00000000
_symmetry_Int_Tables_number   1
_chemical_formula_structural   Li9Cr5O12
_chemical_formula_sum   'Li18 Cr10 O24'
_cell_volume   472.48270036
_cell_formula_units_Z   2
loop_
 _symmetry_equiv_pos_site_id
 _symmetry_equiv_pos_as_xyz
  1  'x, y, z'
loop_
 _atom_site_type_symbol
 _atom_site_label
 _atom_site_symmetry_multiplicity
 _atom_site_fract_x
 _atom_site_fract_y
 _atom_site_fract_z
 _atom_site_occupancy
  Li  Li0  1  0.30179150  0.50000000  0.24474800  1
  Li  Li1  1  0.73971850  0.00000000  0.69473500  1
  Li  Li2  1  0.58040800  0.77222000  0.74770400  1
  Li  Li3  1  0.08040800  0.72778000  0.74770400  1
  Li  Li4  1  0.00000000  0.00000000  0.50000000  1
  Li  Li5  1  0.41959200  0.77222000  0.25229600  1
  Li  Li6  1  0.91959200  0.72778000  0.25229600  1
  Li  Li7  1  0.26028150  0.00000000  0.30526500  1
  Li  Li8  1  0.19820850  0.00000000  0.75525200  1
  Li  Li9  1  0.80179150  0.00000000  0.24474800  1
  Li  Li10  1  0.23971850  0.50000000  0.69473500  1
  Li  Li11  1  0.08040800  0.27222000  0.74770400  1
  Li  Li12  1  0.58040800  0.22778000  0.74770400  1
  Li  Li13  1  0.50000000  0.50000000  0.50000000  1
  Li  Li14  1  0.91959200  0.27222000  0.25229600  1
  Li  Li15  1  0.41959200  0.22778000  0.25229600  1
  Li  Li16  1  0.76028150  0.50000000  0.30526500  1
  Li  Li17  1  0.69820850  0.50000000  0.75525200  1
  Cr  Cr18  1  0.50000000  0.66525300  0.00000000  1
  Cr  Cr19  1  0.50000000  0.00000000  0.00000000  1
  Cr  Cr20  1  0.00000000  0.83474700  0.00000000  1
  Cr  Cr21  1  0.50000000  0.83212700  0.50000000  1
  Cr  Cr22  1  0.00000000  0.66787300  0.50000000  1
  Cr  Cr23  1  0.00000000  0.16525300  0.00000000  1
  Cr  Cr24  1  0.00000000  0.50000000  0.00000000  1
  Cr  Cr25  1  0.50000000  0.33474700  0.00000000  1
  Cr  Cr26  1  0.00000000  0.33212700  0.50000000  1
  Cr  Cr27  1  0.50000000  0.16787300  0.50000000  1
  O  O28  1  0.31454050  0.50000000  0.89400500  1
  O  O29  1  0.65325750  0.67446150  0.38088500  1
  O  O30  1  0.15325750  0.82553850  0.38088500  1
  O  O31  1  0.18862300  0.66565900  0.10795800  1
  O  O32  1  0.68862300  0.83434100  0.10795800  1
  O  O33  1  0.60820250  0.00000000  0.38498500  1
  O  O34  1  0.39179750  0.00000000  0.61501500  1
  O  O35  1  0.81137700  0.66565900  0.89204200  1
  O  O36  1  0.31137700  0.83434100  0.89204200  1
  O  O37  1  0.34674250  0.67446150  0.61911500  1
  O  O38  1  0.84674250  0.82553850  0.61911500  1
  O  O39  1  0.68545950  0.50000000  0.10599500  1
  O  O40  1  0.81454050  0.00000000  0.89400500  1
  O  O41  1  0.15325750  0.17446150  0.38088500  1
  O  O42  1  0.65325750  0.32553850  0.38088500  1
  O  O43  1  0.68862300  0.16565900  0.10795800  1
  O  O44  1  0.18862300  0.33434100  0.10795800  1
  O  O45  1  0.10820250  0.50000000  0.38498500  1
  O  O46  1  0.89179750  0.50000000  0.61501500  1
  O  O47  1  0.31137700  0.16565900  0.89204200  1
  O  O48  1  0.81137700  0.33434100  0.89204200  1
  O  O49  1  0.84674250  0.17446150  0.61911500  1
  O  O50  1  0.34674250  0.32553850  0.61911500  1
  O  O51  1  0.18545950  0.00000000  0.10599500  1
