# generated using pymatgen
data_P4WO12
_symmetry_space_group_name_H-M   'P 1'
_cell_length_a   12.78326000
_cell_length_b   8.38637000
_cell_length_c   10.14881891
_cell_angle_alpha   90.00000000
_cell_angle_beta   117.44149171
_cell_angle_gamma   90.00000000
_symmetry_Int_Tables_number   1
_chemical_formula_structural   P4WO12
_chemical_formula_sum   'P16 W4 O48'
_cell_volume   965.58529858
_cell_formula_units_Z   4
loop_
 _symmetry_equiv_pos_site_id
 _symmetry_equiv_pos_as_xyz
  1  'x, y, z'
loop_
 _atom_site_type_symbol
 _atom_site_label
 _atom_site_symmetry_multiplicity
 _atom_site_fract_x
 _atom_site_fract_y
 _atom_site_fract_z
 _atom_site_occupancy
  P  P0  1  0.50501350  0.75696950  0.53149700  1
  P  P1  1  0.49498650  0.75696950  0.96850300  1
  P  P2  1  0.17332750  0.48323250  0.18521200  1
  P  P3  1  0.00501350  0.74303050  0.03149700  1
  P  P4  1  0.99498650  0.74303050  0.46850300  1
  P  P5  1  0.32667250  0.98323250  0.31478800  1
  P  P6  1  0.17332750  0.51676750  0.68521200  1
  P  P7  1  0.32667250  0.01676750  0.81478800  1
  P  P8  1  0.00501350  0.25696950  0.53149700  1
  P  P9  1  0.99498650  0.25696950  0.96850300  1
  P  P10  1  0.67332750  0.98323250  0.18521200  1
  P  P11  1  0.50501350  0.24303050  0.03149700  1
  P  P12  1  0.49498650  0.24303050  0.46850300  1
  P  P13  1  0.82667250  0.48323250  0.31478800  1
  P  P14  1  0.67332750  0.01676750  0.68521200  1
  P  P15  1  0.82667250  0.51676750  0.81478800  1
  W  W16  1  0.25000000  0.75000000  0.00000000  1
  W  W17  1  0.25000000  0.25000000  0.50000000  1
  W  W18  1  0.75000000  0.25000000  0.00000000  1
  W  W19  1  0.75000000  0.75000000  0.50000000  1
  O  O20  1  0.56359850  0.90502050  0.65190100  1
  O  O21  1  0.27720000  0.07312100  0.65596100  1
  O  O22  1  0.22280000  0.42687900  0.34403900  1
  O  O23  1  0.57419500  0.75632800  0.43975400  1
  O  O24  1  0.57419500  0.24367200  0.93975400  1
  O  O25  1  0.06359850  0.59497950  0.15190100  1
  O  O26  1  0.23852400  0.93180000  0.85031000  1
  O  O27  1  0.37722000  0.16638300  0.92218000  1
  O  O28  1  0.37722000  0.83361700  0.42218000  1
  O  O29  1  0.99091150  0.88525950  0.10306700  1
  O  O30  1  0.93640150  0.59497950  0.34809900  1
  O  O31  1  0.77720000  0.42687900  0.15596100  1
  O  O32  1  0.26147600  0.43180000  0.64969000  1
  O  O33  1  0.00908850  0.88525950  0.39693300  1
  O  O34  1  0.49091150  0.61474050  0.60306700  1
  O  O35  1  0.92580500  0.25632800  0.06024600  1
  O  O36  1  0.72280000  0.07312100  0.84403900  1
  O  O37  1  0.92580500  0.74367200  0.56024600  1
  O  O38  1  0.50908850  0.61474050  0.89693300  1
  O  O39  1  0.12278000  0.66638300  0.57782000  1
  O  O40  1  0.12278000  0.33361700  0.07782000  1
  O  O41  1  0.26147600  0.56820000  0.14969000  1
  O  O42  1  0.43640150  0.90502050  0.84809900  1
  O  O43  1  0.23852400  0.06820000  0.35031000  1
  O  O44  1  0.06359850  0.40502050  0.65190100  1
  O  O45  1  0.77720000  0.57312100  0.65596100  1
  O  O46  1  0.72280000  0.92687900  0.34403900  1
  O  O47  1  0.07419500  0.25632800  0.43975400  1
  O  O48  1  0.07419500  0.74367200  0.93975400  1
  O  O49  1  0.56359850  0.09497950  0.15190100  1
  O  O50  1  0.73852400  0.43180000  0.85031000  1
  O  O51  1  0.87722000  0.66638300  0.92218000  1
  O  O52  1  0.87722000  0.33361700  0.42218000  1
  O  O53  1  0.49091150  0.38525950  0.10306700  1
  O  O54  1  0.43640150  0.09497950  0.34809900  1
  O  O55  1  0.27720000  0.92687900  0.15596100  1
  O  O56  1  0.76147600  0.93180000  0.64969000  1
  O  O57  1  0.50908850  0.38525950  0.39693300  1
  O  O58  1  0.99091150  0.11474050  0.60306700  1
  O  O59  1  0.42580500  0.75632800  0.06024600  1
  O  O60  1  0.22280000  0.57312100  0.84403900  1
  O  O61  1  0.42580500  0.24367200  0.56024600  1
  O  O62  1  0.00908850  0.11474050  0.89693300  1
  O  O63  1  0.62278000  0.16638300  0.57782000  1
  O  O64  1  0.62278000  0.83361700  0.07782000  1
  O  O65  1  0.76147600  0.06820000  0.14969000  1
  O  O66  1  0.93640150  0.40502050  0.84809900  1
  O  O67  1  0.73852400  0.56820000  0.35031000  1
