# generated using pymatgen
data_Li7MnP4O14F
_symmetry_space_group_name_H-M   'P 1'
_cell_length_a   9.87056400
_cell_length_b   8.12571800
_cell_length_c   14.67585400
_cell_angle_alpha   90.00000000
_cell_angle_beta   98.01878973
_cell_angle_gamma   90.00000000
_symmetry_Int_Tables_number   1
_chemical_formula_structural   Li7MnP4O14F
_chemical_formula_sum   'Li28 Mn4 P16 O56 F4'
_cell_volume   1165.57395086
_cell_formula_units_Z   4
loop_
 _symmetry_equiv_pos_site_id
 _symmetry_equiv_pos_as_xyz
  1  'x, y, z'
loop_
 _atom_site_type_symbol
 _atom_site_label
 _atom_site_symmetry_multiplicity
 _atom_site_fract_x
 _atom_site_fract_y
 _atom_site_fract_z
 _atom_site_occupancy
  Li  Li0  1  0.80874800  0.20314700  0.82400200  1
  Li  Li1  1  0.90393550  0.72941150  0.83499200  1
  Li  Li2  1  0.80874800  0.79685300  0.32400200  1
  Li  Li3  1  0.90393550  0.27058850  0.33499200  1
  Li  Li4  1  0.97331800  0.92246300  0.49366800  1
  Li  Li5  1  0.09856400  0.42473000  0.82097600  1
  Li  Li6  1  0.97331800  0.07753700  0.99366800  1
  Li  Li7  1  0.14819100  0.72963700  0.97398500  1
  Li  Li8  1  0.09856400  0.57527000  0.32097600  1
  Li  Li9  1  0.14819100  0.27036300  0.47398500  1
  Li  Li10  1  0.24473150  0.28110850  0.98621600  1
  Li  Li11  1  0.24473150  0.71889150  0.48621600  1
  Li  Li12  1  0.28222650  0.41530250  0.65938200  1
  Li  Li13  1  0.28222650  0.58469750  0.15938200  1
  Li  Li14  1  0.30874800  0.70314700  0.82400200  1
  Li  Li15  1  0.40393550  0.22941150  0.83499200  1
  Li  Li16  1  0.30874800  0.29685300  0.32400200  1
  Li  Li17  1  0.40393550  0.77058850  0.33499200  1
  Li  Li18  1  0.47331800  0.42246300  0.49366800  1
  Li  Li19  1  0.59856400  0.92473000  0.82097600  1
  Li  Li20  1  0.47331800  0.57753700  0.99366800  1
  Li  Li21  1  0.64819100  0.22963700  0.97398500  1
  Li  Li22  1  0.59856400  0.07527000  0.32097600  1
  Li  Li23  1  0.64819100  0.77036300  0.47398500  1
  Li  Li24  1  0.74473150  0.78110850  0.98621600  1
  Li  Li25  1  0.74473150  0.21889150  0.48621600  1
  Li  Li26  1  0.78222650  0.91530250  0.65938200  1
  Li  Li27  1  0.78222650  0.08469750  0.15938200  1
  Mn  Mn28  1  0.77920800  0.50003900  0.65704400  1
  Mn  Mn29  1  0.77920800  0.49996100  0.15704400  1
  Mn  Mn30  1  0.27920800  0.00003900  0.65704400  1
  Mn  Mn31  1  0.27920800  0.99996100  0.15704400  1
  P  P32  1  0.61219900  0.52567000  0.83139500  1
  P  P33  1  0.61219900  0.47433000  0.33139500  1
  P  P34  1  0.92542700  0.45473400  0.98174800  1
  P  P35  1  0.92542700  0.54526600  0.48174800  1
  P  P36  1  0.98462700  0.17571700  0.65625300  1
  P  P37  1  0.98462700  0.82428300  0.15625300  1
  P  P38  1  0.06484650  0.68425350  0.65464400  1
  P  P39  1  0.06484650  0.31574650  0.15464400  1
  P  P40  1  0.11219900  0.02567000  0.83139500  1
  P  P41  1  0.11219900  0.97433000  0.33139500  1
  P  P42  1  0.42542700  0.95473400  0.98174800  1
  P  P43  1  0.42542700  0.04526600  0.48174800  1
  P  P44  1  0.48462700  0.67571700  0.65625300  1
  P  P45  1  0.48462700  0.32428300  0.15625300  1
  P  P46  1  0.56484650  0.18425350  0.65464400  1
  P  P47  1  0.56484650  0.81574650  0.15464400  1
  O  O48  1  0.75164850  0.54339050  0.79787900  1
  O  O49  1  0.75164850  0.45660950  0.29787900  1
  O  O50  1  0.86237250  0.28272950  0.96062000  1
  O  O51  1  0.82142050  0.43466950  0.51887600  1
  O  O52  1  0.86237250  0.71727050  0.46062000  1
  O  O53  1  0.82142050  0.56533050  0.01887600  1
  O  O54  1  0.92151050  0.70589650  0.68368900  1
  O  O55  1  0.93683900  0.32501600  0.70815900  1
  O  O56  1  0.00226250  0.53970150  0.91102200  1
  O  O57  1  0.99924500  0.03672300  0.73797500  1
  O  O58  1  0.92151050  0.29410350  0.18368900  1
  O  O59  1  0.93683900  0.67498400  0.20815900  1
  O  O60  1  0.00226250  0.46029850  0.41102200  1
  O  O61  1  0.99924500  0.96327700  0.23797500  1
  O  O62  1  0.08504450  0.85498250  0.86795800  1
  O  O63  1  0.08096350  0.16655350  0.89388900  1
  O  O64  1  0.05292500  0.56061900  0.56649800  1
  O  O65  1  0.11436550  0.84149050  0.61296400  1
  O  O66  1  0.08504450  0.14501750  0.36795800  1
  O  O67  1  0.12333900  0.20868100  0.62106900  1
  O  O68  1  0.08096350  0.83344650  0.39388900  1
  O  O69  1  0.05292500  0.43938100  0.06649800  1
  O  O70  1  0.16840150  0.59637650  0.72608100  1
  O  O71  1  0.11436550  0.15850950  0.11296400  1
  O  O72  1  0.12333900  0.79131900  0.12106900  1
  O  O73  1  0.16840150  0.40362350  0.22608100  1
  O  O74  1  0.38018900  0.59125000  0.58372500  1
  O  O75  1  0.38018900  0.40875000  0.08372500  1
  O  O76  1  0.25164850  0.04339050  0.79787900  1
  O  O77  1  0.25164850  0.95660950  0.29787900  1
  O  O78  1  0.36237250  0.78272950  0.96062000  1
  O  O79  1  0.32142050  0.93466950  0.51887600  1
  O  O80  1  0.36237250  0.21727050  0.46062000  1
  O  O81  1  0.32142050  0.06533050  0.01887600  1
  O  O82  1  0.42151050  0.20589650  0.68368900  1
  O  O83  1  0.43683900  0.82501600  0.70815900  1
  O  O84  1  0.50226250  0.03970150  0.91102200  1
  O  O85  1  0.49924500  0.53672300  0.73797500  1
  O  O86  1  0.42151050  0.79410350  0.18368900  1
  O  O87  1  0.43683900  0.17498400  0.20815900  1
  O  O88  1  0.50226250  0.96029850  0.41102200  1
  O  O89  1  0.49924500  0.46327700  0.23797500  1
  O  O90  1  0.58504450  0.35498250  0.86795800  1
  O  O91  1  0.58096350  0.66655350  0.89388900  1
  O  O92  1  0.55292500  0.06061900  0.56649800  1
  O  O93  1  0.61436550  0.34149050  0.61296400  1
  O  O94  1  0.58504450  0.64501750  0.36795800  1
  O  O95  1  0.62333900  0.70868100  0.62106900  1
  O  O96  1  0.58096350  0.33344650  0.39388900  1
  O  O97  1  0.55292500  0.93938100  0.06649800  1
  O  O98  1  0.66840150  0.09637650  0.72608100  1
  O  O99  1  0.61436550  0.65850950  0.11296400  1
  O  O100  1  0.62333900  0.29131900  0.12106900  1
  O  O101  1  0.66840150  0.90362350  0.22608100  1
  O  O102  1  0.88018900  0.09125000  0.58372500  1
  O  O103  1  0.88018900  0.90875000  0.08372500  1
  F  F104  1  0.29091600  0.41733800  0.88272400  1
  F  F105  1  0.29091600  0.58266200  0.38272400  1
  F  F106  1  0.79091600  0.91733800  0.88272400  1
  F  F107  1  0.79091600  0.08266200  0.38272400  1
