# generated using pymatgen
data_Mn2OF3
_symmetry_space_group_name_H-M   'P 1'
_cell_length_a   5.10505606
_cell_length_b   6.15454300
_cell_length_c   10.47384514
_cell_angle_alpha   90.00000000
_cell_angle_beta   90.00000000
_cell_angle_gamma   90.00000000
_symmetry_Int_Tables_number   1
_chemical_formula_structural   Mn2OF3
_chemical_formula_sum   'Mn8 O4 F12'
_cell_volume   329.08074695
_cell_formula_units_Z   4
loop_
 _symmetry_equiv_pos_site_id
 _symmetry_equiv_pos_as_xyz
  1  'x, y, z'
loop_
 _atom_site_type_symbol
 _atom_site_label
 _atom_site_symmetry_multiplicity
 _atom_site_fract_x
 _atom_site_fract_y
 _atom_site_fract_z
 _atom_site_occupancy
  Mn  Mn0  1  0.00000000  0.50000000  0.00000000  1
  Mn  Mn1  1  0.00000000  0.00000000  0.00000000  1
  Mn  Mn2  1  0.98256750  0.25000000  0.73474100  1
  Mn  Mn3  1  0.01743250  0.75000000  0.26525900  1
  Mn  Mn4  1  0.50000000  0.50000000  0.50000000  1
  Mn  Mn5  1  0.50000000  0.00000000  0.50000000  1
  Mn  Mn6  1  0.48256750  0.75000000  0.76525900  1
  Mn  Mn7  1  0.51743250  0.25000000  0.23474100  1
  O  O8  1  0.34358850  0.75000000  0.57470000  1
  O  O9  1  0.84358850  0.25000000  0.92530000  1
  O  O10  1  0.15641150  0.75000000  0.07470000  1
  O  O11  1  0.65641150  0.25000000  0.42530000  1
  F  F12  1  0.25722550  0.25000000  0.58771600  1
  F  F13  1  0.75722550  0.75000000  0.91228400  1
  F  F14  1  0.24277450  0.25000000  0.08771600  1
  F  F15  1  0.74277450  0.75000000  0.41228400  1
  F  F16  1  0.72019250  0.49047650  0.66132700  1
  F  F17  1  0.72019250  0.00952350  0.66132700  1
  F  F18  1  0.22019250  0.99047650  0.83867300  1
  F  F19  1  0.22019250  0.50952350  0.83867300  1
  F  F20  1  0.77980750  0.49047650  0.16132700  1
  F  F21  1  0.77980750  0.00952350  0.16132700  1
  F  F22  1  0.27980750  0.99047650  0.33867300  1
  F  F23  1  0.27980750  0.50952350  0.33867300  1
