# generated using pymatgen
data_MnNi(PO4)2
_symmetry_space_group_name_H-M   'P 1'
_cell_length_a   8.51726199
_cell_length_b   8.51726199
_cell_length_c   20.49354539
_cell_angle_alpha   90.00000000
_cell_angle_beta   90.00000000
_cell_angle_gamma   120.00000000
_symmetry_Int_Tables_number   1
_chemical_formula_structural   MnNi(PO4)2
_chemical_formula_sum   'Mn9 Ni9 P18 O72'
_cell_volume   1287.50149548
_cell_formula_units_Z   9
loop_
 _symmetry_equiv_pos_site_id
 _symmetry_equiv_pos_as_xyz
  1  'x, y, z'
loop_
 _atom_site_type_symbol
 _atom_site_label
 _atom_site_symmetry_multiplicity
 _atom_site_fract_x
 _atom_site_fract_y
 _atom_site_fract_z
 _atom_site_occupancy
  Mn  Mn0  1  0.33333333  0.66666667  0.30833567  1
  Mn  Mn1  1  0.33333333  0.66666667  0.52550667  1
  Mn  Mn2  1  0.33333333  0.66666667  0.02495467  1
  Mn  Mn3  1  0.00000000  0.00000000  0.64166900  1
  Mn  Mn4  1  0.00000000  0.00000000  0.85884000  1
  Mn  Mn5  1  0.00000000  0.00000000  0.35828800  1
  Mn  Mn6  1  0.66666667  0.33333333  0.97500233  1
  Mn  Mn7  1  0.66666667  0.33333333  0.19217333  1
  Mn  Mn8  1  0.66666667  0.33333333  0.69162133  1
  Ni  Ni9  1  0.33333333  0.66666667  0.66949867  1
  Ni  Ni10  1  0.33333333  0.66666667  0.80784067  1
  Ni  Ni11  1  0.33333333  0.66666667  0.16727067  1
  Ni  Ni12  1  0.00000000  0.00000000  0.00283200  1
  Ni  Ni13  1  0.00000000  0.00000000  0.14117400  1
  Ni  Ni14  1  0.00000000  0.00000000  0.50060400  1
  Ni  Ni15  1  0.66666667  0.33333333  0.33616533  1
  Ni  Ni16  1  0.66666667  0.33333333  0.47450733  1
  Ni  Ni17  1  0.66666667  0.33333333  0.83393733  1
  P  P18  1  0.70902733  0.70757167  0.24959367  1
  P  P19  1  0.29242833  0.00145567  0.24959367  1
  P  P20  1  0.99854433  0.29097267  0.24959367  1
  P  P21  1  0.66699200  0.04306400  0.08231600  1
  P  P22  1  0.37607200  0.33300800  0.08231600  1
  P  P23  1  0.95693600  0.62392800  0.08231600  1
  P  P24  1  0.37569400  0.04090500  0.58292700  1
  P  P25  1  0.95909500  0.33478900  0.58292700  1
  P  P26  1  0.66521100  0.62430600  0.58292700  1
  P  P27  1  0.33365867  0.37639733  0.41564933  1
  P  P28  1  0.04273867  0.66634133  0.41564933  1
  P  P29  1  0.62360267  0.95726133  0.41564933  1
  P  P30  1  0.04236067  0.37423833  0.91626033  1
  P  P31  1  0.62576167  0.66812233  0.91626033  1
  P  P32  1  0.33187767  0.95763933  0.91626033  1
  P  P33  1  0.00032533  0.70973067  0.74898267  1
  P  P34  1  0.70940533  0.99967467  0.74898267  1
  P  P35  1  0.29026933  0.29059467  0.74898267  1
  O  O36  1  0.53037367  0.67135733  0.97971833  1
  O  O37  1  0.32864267  0.85901633  0.97971833  1
  O  O38  1  0.14098367  0.46962633  0.97971833  1
  O  O39  1  0.68470033  0.51227667  0.25844767  1
  O  O40  1  0.79720533  0.79832667  0.18714567  1
  O  O41  1  0.51211833  0.68227267  0.24469167  1
  O  O42  1  0.48772333  0.17242367  0.25844767  1
  O  O43  1  0.31772733  0.82984567  0.24469167  1
  O  O44  1  0.66352233  0.13825667  0.14581467  1
  O  O45  1  0.17015433  0.48788167  0.24469167  1
  O  O46  1  0.83060667  0.01724633  0.07375533  1
  O  O47  1  0.47473433  0.33647767  0.14581467  1
  O  O48  1  0.20167333  0.99887867  0.18714567  1
  O  O49  1  0.82757633  0.31529967  0.25844767  1
  O  O50  1  0.48934933  0.85078567  0.09032167  1
  O  O51  1  0.00112133  0.20279467  0.18714567  1
  O  O52  1  0.36143633  0.51065067  0.09032167  1
  O  O53  1  0.18663967  0.16939333  0.07375533  1
  O  O54  1  0.14921433  0.63856367  0.09032167  1
  O  O55  1  0.86174333  0.52526567  0.14581467  1
  O  O56  1  0.98275367  0.81336033  0.07375533  1
  O  O57  1  0.52621167  0.85423833  0.35372633  1
  O  O58  1  0.32802667  0.47378833  0.35372633  1
  O  O59  1  0.14576167  0.67197333  0.35372633  1
  O  O60  1  0.19704033  0.00469067  0.31305167  1
  O  O61  1  0.99530933  0.19234967  0.31305167  1
  O  O62  1  0.80765033  0.80295967  0.31305167  1
  O  O63  1  0.35136700  0.84561000  0.59178100  1
  O  O64  1  0.46387200  0.13166000  0.52047900  1
  O  O65  1  0.17878500  0.01560600  0.57802500  1
  O  O66  1  0.15439000  0.50575700  0.59178100  1
  O  O67  1  0.98439400  0.16317900  0.57802500  1
  O  O68  1  0.33018900  0.47159000  0.47914800  1
  O  O69  1  0.83682100  0.82121500  0.57802500  1
  O  O70  1  0.49727333  0.35057967  0.40708867  1
  O  O71  1  0.14140100  0.66981100  0.47914800  1
  O  O72  1  0.86834000  0.33221200  0.52047900  1
  O  O73  1  0.49424300  0.64863300  0.59178100  1
  O  O74  1  0.15601600  0.18411900  0.42365500  1
  O  O75  1  0.66778800  0.53612800  0.52047900  1
  O  O76  1  0.02810300  0.84398400  0.42365500  1
  O  O77  1  0.85330633  0.50272667  0.40708867  1
  O  O78  1  0.81588100  0.97189700  0.42365500  1
  O  O79  1  0.52841000  0.85859900  0.47914800  1
  O  O80  1  0.64942033  0.14669367  0.40708867  1
  O  O81  1  0.19287833  0.18757167  0.68705967  1
  O  O82  1  0.99469333  0.80712167  0.68705967  1
  O  O83  1  0.81242833  0.00530667  0.68705967  1
  O  O84  1  0.86370700  0.33802400  0.64638500  1
  O  O85  1  0.66197600  0.52568300  0.64638500  1
  O  O86  1  0.47431700  0.13629300  0.64638500  1
  O  O87  1  0.01803367  0.17894333  0.92511433  1
  O  O88  1  0.13053867  0.46499333  0.85381233  1
  O  O89  1  0.84545167  0.34893933  0.91135833  1
  O  O90  1  0.82105667  0.83909033  0.92511433  1
  O  O91  1  0.65106067  0.49651233  0.91135833  1
  O  O92  1  0.99685567  0.80492333  0.81248133  1
  O  O93  1  0.50348767  0.15454833  0.91135833  1
  O  O94  1  0.16394000  0.68391300  0.74042200  1
  O  O95  1  0.80806767  0.00314433  0.81248133  1
  O  O96  1  0.53500667  0.66554533  0.85381233  1
  O  O97  1  0.16090967  0.98196633  0.92511433  1
  O  O98  1  0.82268267  0.51745233  0.75698833  1
  O  O99  1  0.33445467  0.86946133  0.85381233  1
  O  O100  1  0.69476967  0.17731733  0.75698833  1
  O  O101  1  0.51997300  0.83606000  0.74042200  1
  O  O102  1  0.48254767  0.30523033  0.75698833  1
  O  O103  1  0.19507667  0.19193233  0.81248133  1
  O  O104  1  0.31608700  0.48002700  0.74042200  1
  O  O105  1  0.85954500  0.52090500  0.02039300  1
  O  O106  1  0.66136000  0.14045500  0.02039300  1
  O  O107  1  0.47909500  0.33864000  0.02039300  1
