# generated using pymatgen
data_LiTiMnO4
_symmetry_space_group_name_H-M   'P 1'
_cell_length_a   6.30646150
_cell_length_b   6.30646150
_cell_length_c   7.23323100
_cell_angle_alpha   90.00000000
_cell_angle_beta   90.00000000
_cell_angle_gamma   90.00000000
_symmetry_Int_Tables_number   1
_chemical_formula_structural   LiTiMnO4
_chemical_formula_sum   'Li4 Ti4 Mn4 O16'
_cell_volume   287.67613317
_cell_formula_units_Z   4
loop_
 _symmetry_equiv_pos_site_id
 _symmetry_equiv_pos_as_xyz
  1  'x, y, z'
loop_
 _atom_site_type_symbol
 _atom_site_label
 _atom_site_symmetry_multiplicity
 _atom_site_fract_x
 _atom_site_fract_y
 _atom_site_fract_z
 _atom_site_occupancy
  Li  Li0  1  0.00000000  0.22055000  0.00000000  1
  Li  Li1  1  0.00000000  0.77945000  0.50000000  1
  Li  Li2  1  0.22055000  0.00000000  0.25000000  1
  Li  Li3  1  0.77945000  0.00000000  0.75000000  1
  Ti  Ti4  1  0.21643600  0.50000000  0.25000000  1
  Ti  Ti5  1  0.50000000  0.21643600  0.00000000  1
  Ti  Ti6  1  0.50000000  0.78356400  0.50000000  1
  Ti  Ti7  1  0.78356400  0.50000000  0.75000000  1
  Mn  Mn8  1  0.25830600  0.25830600  0.62500000  1
  Mn  Mn9  1  0.25830600  0.74169400  0.87500000  1
  Mn  Mn10  1  0.74169400  0.25830600  0.37500000  1
  Mn  Mn11  1  0.74169400  0.74169400  0.12500000  1
  O  O12  1  0.03336400  0.26989100  0.28785600  1
  O  O13  1  0.03336400  0.73010900  0.21214400  1
  O  O14  1  0.26989100  0.03336400  0.96214400  1
  O  O15  1  0.26989100  0.96663600  0.53785600  1
  O  O16  1  0.26562800  0.45881100  0.98394900  1
  O  O17  1  0.26562800  0.54118900  0.51605100  1
  O  O18  1  0.45881100  0.26562800  0.26605100  1
  O  O19  1  0.45881100  0.73437200  0.23394900  1
  O  O20  1  0.54118900  0.26562800  0.73394900  1
  O  O21  1  0.54118900  0.73437200  0.76605100  1
  O  O22  1  0.73437200  0.54118900  0.48394900  1
  O  O23  1  0.73437200  0.45881100  0.01605100  1
  O  O24  1  0.73010900  0.03336400  0.03785600  1
  O  O25  1  0.73010900  0.96663600  0.46214400  1
  O  O26  1  0.96663600  0.26989100  0.71214400  1
  O  O27  1  0.96663600  0.73010900  0.78785600  1
