# generated using pymatgen
data_Li4TiCr5O12
_symmetry_space_group_name_H-M   'P 1'
_cell_length_a   5.13707400
_cell_length_b   8.90146000
_cell_length_c   10.12606175
_cell_angle_alpha   90.00000000
_cell_angle_beta   90.04933428
_cell_angle_gamma   90.00000000
_symmetry_Int_Tables_number   1
_chemical_formula_structural   Li4TiCr5O12
_chemical_formula_sum   'Li8 Ti2 Cr10 O24'
_cell_volume   463.03889927
_cell_formula_units_Z   2
loop_
 _symmetry_equiv_pos_site_id
 _symmetry_equiv_pos_as_xyz
  1  'x, y, z'
loop_
 _atom_site_type_symbol
 _atom_site_label
 _atom_site_symmetry_multiplicity
 _atom_site_fract_x
 _atom_site_fract_y
 _atom_site_fract_z
 _atom_site_occupancy
  Li  Li0  1  0.09774300  0.25069300  0.74892200  1
  Li  Li1  1  0.90225700  0.25069300  0.25107800  1
  Li  Li2  1  0.59774300  0.24930700  0.74892200  1
  Li  Li3  1  0.40225700  0.24930700  0.25107800  1
  Li  Li4  1  0.59774300  0.75069300  0.74892200  1
  Li  Li5  1  0.40225700  0.75069300  0.25107800  1
  Li  Li6  1  0.09774300  0.74930700  0.74892200  1
  Li  Li7  1  0.90225700  0.74930700  0.25107800  1
  Ti  Ti8  1  0.00000000  0.00000000  0.00000000  1
  Ti  Ti9  1  0.50000000  0.50000000  0.00000000  1
  Cr  Cr10  1  0.00000000  0.16508300  0.50000000  1
  Cr  Cr11  1  0.50000000  0.16399600  0.00000000  1
  Cr  Cr12  1  0.00000000  0.33600400  0.00000000  1
  Cr  Cr13  1  0.50000000  0.33491700  0.50000000  1
  Cr  Cr14  1  0.50000000  0.00000000  0.50000000  1
  Cr  Cr15  1  0.50000000  0.66508300  0.50000000  1
  Cr  Cr16  1  0.00000000  0.66399600  0.00000000  1
  Cr  Cr17  1  0.50000000  0.83600400  0.00000000  1
  Cr  Cr18  1  0.00000000  0.83491700  0.50000000  1
  Cr  Cr19  1  0.00000000  0.50000000  0.50000000  1
  O  O20  1  0.16309150  0.16856850  0.10683200  1
  O  O21  1  0.83690850  0.16856850  0.89316800  1
  O  O22  1  0.16388450  0.32828650  0.39388700  1
  O  O23  1  0.66388450  0.17171350  0.39388700  1
  O  O24  1  0.83611550  0.32828650  0.60611300  1
  O  O25  1  0.83104700  0.00000000  0.59404600  1
  O  O26  1  0.33611550  0.17171350  0.60611300  1
  O  O27  1  0.66309150  0.33143150  0.10683200  1
  O  O28  1  0.67600200  0.00000000  0.09965300  1
  O  O29  1  0.33690850  0.33143150  0.89316800  1
  O  O30  1  0.32399800  0.00000000  0.90034700  1
  O  O31  1  0.16895300  0.00000000  0.40595400  1
  O  O32  1  0.66309150  0.66856850  0.10683200  1
  O  O33  1  0.33690850  0.66856850  0.89316800  1
  O  O34  1  0.66388450  0.82828650  0.39388700  1
  O  O35  1  0.16388450  0.67171350  0.39388700  1
  O  O36  1  0.33611550  0.82828650  0.60611300  1
  O  O37  1  0.33104700  0.50000000  0.59404600  1
  O  O38  1  0.83611550  0.67171350  0.60611300  1
  O  O39  1  0.16309150  0.83143150  0.10683200  1
  O  O40  1  0.17600200  0.50000000  0.09965300  1
  O  O41  1  0.83690850  0.83143150  0.89316800  1
  O  O42  1  0.82399800  0.50000000  0.90034700  1
  O  O43  1  0.66895300  0.50000000  0.40595400  1
