# generated using pymatgen
data_Dy5(ReO6)2
_symmetry_space_group_name_H-M   'P 1'
_cell_length_a   12.45990800
_cell_length_b   5.66871400
_cell_length_c   7.56613054
_cell_angle_alpha   90.00000000
_cell_angle_beta   107.85810442
_cell_angle_gamma   90.00000000
_symmetry_Int_Tables_number   1
_chemical_formula_structural   Dy5(ReO6)2
_chemical_formula_sum   'Dy10 Re4 O24'
_cell_volume   508.65993722
_cell_formula_units_Z   2
loop_
 _symmetry_equiv_pos_site_id
 _symmetry_equiv_pos_as_xyz
  1  'x, y, z'
loop_
 _atom_site_type_symbol
 _atom_site_label
 _atom_site_symmetry_multiplicity
 _atom_site_fract_x
 _atom_site_fract_y
 _atom_site_fract_z
 _atom_site_occupancy
  Dy  Dy0  1  0.30365600  0.50000000  0.64270600  1
  Dy  Dy1  1  0.31406200  0.50000000  0.17680900  1
  Dy  Dy2  1  0.00000000  0.50000000  0.50000000  1
  Dy  Dy3  1  0.19634400  0.00000000  0.35729400  1
  Dy  Dy4  1  0.18593800  0.00000000  0.82319100  1
  Dy  Dy5  1  0.80365600  0.00000000  0.64270600  1
  Dy  Dy6  1  0.81406200  0.00000000  0.17680900  1
  Dy  Dy7  1  0.50000000  0.00000000  0.50000000  1
  Dy  Dy8  1  0.69634400  0.50000000  0.35729400  1
  Dy  Dy9  1  0.68593800  0.50000000  0.82319100  1
  Re  Re10  1  0.00000000  0.28619800  0.00000000  1
  Re  Re11  1  0.00000000  0.71380200  0.00000000  1
  Re  Re12  1  0.50000000  0.78619800  0.00000000  1
  Re  Re13  1  0.50000000  0.21380200  0.00000000  1
  O  O14  1  0.33472550  0.25474750  0.91559500  1
  O  O15  1  0.33472550  0.74525250  0.91559500  1
  O  O16  1  0.34609400  0.74863100  0.42744700  1
  O  O17  1  0.34609400  0.25136900  0.42744700  1
  O  O18  1  0.49698400  0.00000000  0.20443500  1
  O  O19  1  0.00037900  0.00000000  0.17593600  1
  O  O20  1  0.49962100  0.50000000  0.82406400  1
  O  O21  1  0.00301600  0.50000000  0.79556500  1
  O  O22  1  0.16527450  0.75474750  0.08440500  1
  O  O23  1  0.16527450  0.24525250  0.08440500  1
  O  O24  1  0.15390600  0.75136900  0.57255300  1
  O  O25  1  0.15390600  0.24863100  0.57255300  1
  O  O26  1  0.83472550  0.75474750  0.91559500  1
  O  O27  1  0.83472550  0.24525250  0.91559500  1
  O  O28  1  0.84609400  0.24863100  0.42744700  1
  O  O29  1  0.84609400  0.75136900  0.42744700  1
  O  O30  1  0.99698400  0.50000000  0.20443500  1
  O  O31  1  0.50037900  0.50000000  0.17593600  1
  O  O32  1  0.99962100  0.00000000  0.82406400  1
  O  O33  1  0.50301600  0.00000000  0.79556500  1
  O  O34  1  0.66527450  0.25474750  0.08440500  1
  O  O35  1  0.66527450  0.74525250  0.08440500  1
  O  O36  1  0.65390600  0.25136900  0.57255300  1
  O  O37  1  0.65390600  0.74863100  0.57255300  1
