# generated using pymatgen
data_Li3La7(FeO8)2
_symmetry_space_group_name_H-M   'P 1'
_cell_length_a   10.72609400
_cell_length_b   10.77601800
_cell_length_c   6.93413646
_cell_angle_alpha   90.00000000
_cell_angle_beta   112.79641516
_cell_angle_gamma   90.00000000
_symmetry_Int_Tables_number   1
_chemical_formula_structural   Li3La7(FeO8)2
_chemical_formula_sum   'Li6 La14 Fe4 O32'
_cell_volume   738.87363143
_cell_formula_units_Z   2
loop_
 _symmetry_equiv_pos_site_id
 _symmetry_equiv_pos_as_xyz
  1  'x, y, z'
loop_
 _atom_site_type_symbol
 _atom_site_label
 _atom_site_symmetry_multiplicity
 _atom_site_fract_x
 _atom_site_fract_y
 _atom_site_fract_z
 _atom_site_occupancy
  Li  Li0  1  0.25472500  0.75245000  0.01878400  1
  Li  Li1  1  0.32327800  0.00000000  0.29407400  1
  Li  Li2  1  0.25472500  0.24755000  0.01878400  1
  Li  Li3  1  0.75472500  0.25245000  0.01878400  1
  Li  Li4  1  0.82327800  0.50000000  0.29407400  1
  Li  Li5  1  0.75472500  0.74755000  0.01878400  1
  La  La6  1  0.18441000  0.00000000  0.73077500  1
  La  La7  1  0.42803550  0.75165750  0.71239600  1
  La  La8  1  0.56980950  0.74909650  0.27823000  1
  La  La9  1  0.67633400  0.00000000  0.71723800  1
  La  La10  1  0.42803550  0.24834250  0.71239600  1
  La  La11  1  0.56980950  0.25090350  0.27823000  1
  La  La12  1  0.82160800  0.00000000  0.28344500  1
  La  La13  1  0.68441000  0.50000000  0.73077500  1
  La  La14  1  0.92803550  0.25165750  0.71239600  1
  La  La15  1  0.06980950  0.24909650  0.27823000  1
  La  La16  1  0.17633400  0.50000000  0.71723800  1
  La  La17  1  0.92803550  0.74834250  0.71239600  1
  La  La18  1  0.06980950  0.75090350  0.27823000  1
  La  La19  1  0.32160800  0.50000000  0.28344500  1
  Fe  Fe20  1  0.00353200  0.00000000  0.00444000  1
  Fe  Fe21  1  0.49897200  0.00000000  0.00551500  1
  Fe  Fe22  1  0.50353200  0.50000000  0.00444000  1
  Fe  Fe23  1  0.99897200  0.50000000  0.00551500  1
  O  O24  1  0.07441500  0.00000000  0.35006100  1
  O  O25  1  0.61938000  0.37727400  0.99487700  1
  O  O26  1  0.87715200  0.12107200  0.99368700  1
  O  O27  1  0.33900300  0.73105500  0.35589500  1
  O  O28  1  0.65944050  0.75102150  0.63806900  1
  O  O29  1  0.37842350  0.87758450  0.99620500  1
  O  O30  1  0.61938000  0.62272600  0.99487700  1
  O  O31  1  0.41203200  0.00000000  0.64517400  1
  O  O32  1  0.59992100  0.00000000  0.34756300  1
  O  O33  1  0.61983100  0.87905700  0.99469300  1
  O  O34  1  0.37842350  0.12241550  0.99620500  1
  O  O35  1  0.33900300  0.26894500  0.35589500  1
  O  O36  1  0.65944050  0.24897850  0.63806900  1
  O  O37  1  0.87715200  0.87892800  0.99368700  1
  O  O38  1  0.91390200  0.00000000  0.65604200  1
  O  O39  1  0.61983100  0.12094300  0.99469300  1
  O  O40  1  0.57441500  0.50000000  0.35006100  1
  O  O41  1  0.11938000  0.87727400  0.99487700  1
  O  O42  1  0.37715200  0.62107200  0.99368700  1
  O  O43  1  0.83900300  0.23105500  0.35589500  1
  O  O44  1  0.15944050  0.25102150  0.63806900  1
  O  O45  1  0.87842350  0.37758450  0.99620500  1
  O  O46  1  0.11938000  0.12272600  0.99487700  1
  O  O47  1  0.91203200  0.50000000  0.64517400  1
  O  O48  1  0.09992100  0.50000000  0.34756300  1
  O  O49  1  0.11983100  0.37905700  0.99469300  1
  O  O50  1  0.87842350  0.62241550  0.99620500  1
  O  O51  1  0.83900300  0.76894500  0.35589500  1
  O  O52  1  0.15944050  0.74897850  0.63806900  1
  O  O53  1  0.37715200  0.37892800  0.99368700  1
  O  O54  1  0.41390200  0.50000000  0.65604200  1
  O  O55  1  0.11983100  0.62094300  0.99469300  1
