# generated using pymatgen
data_Li4CoO4
_symmetry_space_group_name_H-M   'P 1'
_cell_length_a   9.05914400
_cell_length_b   9.50135900
_cell_length_c   9.32828496
_cell_angle_alpha   90.00000000
_cell_angle_beta   90.89417448
_cell_angle_gamma   90.00000000
_symmetry_Int_Tables_number   1
_chemical_formula_structural   Li4CoO4
_chemical_formula_sum   'Li32 Co8 O32'
_cell_volume   802.82669610
_cell_formula_units_Z   8
loop_
 _symmetry_equiv_pos_site_id
 _symmetry_equiv_pos_as_xyz
  1  'x, y, z'
loop_
 _atom_site_type_symbol
 _atom_site_label
 _atom_site_symmetry_multiplicity
 _atom_site_fract_x
 _atom_site_fract_y
 _atom_site_fract_z
 _atom_site_occupancy
  Li  Li0  1  0.15146600  0.86587700  0.38737500  1
  Li  Li1  1  0.15146600  0.13412300  0.88737500  1
  Li  Li2  1  0.29852200  0.61908000  0.90958500  1
  Li  Li3  1  0.29852200  0.38092000  0.40958500  1
  Li  Li4  1  0.35188300  0.11440600  0.10790200  1
  Li  Li5  1  0.35188300  0.88559400  0.60790200  1
  Li  Li6  1  0.36067000  0.89753700  0.87001300  1
  Li  Li7  1  0.36067000  0.10246300  0.37001300  1
  Li  Li8  1  0.37161000  0.64892700  0.32901200  1
  Li  Li9  1  0.37161000  0.35107300  0.82901200  1
  Li  Li10  1  0.40158700  0.85842100  0.13928700  1
  Li  Li11  1  0.40158700  0.14157900  0.63928700  1
  Li  Li12  1  0.58966600  0.36659600  0.35865600  1
  Li  Li13  1  0.58966600  0.63340400  0.85865600  1
  Li  Li14  1  0.62287800  0.85940100  0.66238300  1
  Li  Li15  1  0.62287800  0.14059900  0.16238300  1
  Li  Li16  1  0.61840700  0.39820700  0.62907100  1
  Li  Li17  1  0.61840700  0.60179300  0.12907100  1
  Li  Li18  1  0.64966100  0.36812400  0.89974100  1
  Li  Li19  1  0.64966100  0.63187600  0.39974100  1
  Li  Li20  1  0.66820000  0.87050100  0.11038700  1
  Li  Li21  1  0.66820000  0.12949900  0.61038700  1
  Li  Li22  1  0.86302300  0.35878600  0.09817900  1
  Li  Li23  1  0.86302300  0.64121400  0.59817900  1
  Li  Li24  1  0.87027000  0.12246900  0.40167000  1
  Li  Li25  1  0.87027000  0.87753100  0.90167000  1
  Li  Li26  1  0.88966300  0.89985300  0.63736100  1
  Li  Li27  1  0.88966300  0.10014700  0.13736100  1
  Li  Li28  1  0.91566300  0.37019800  0.66468300  1
  Li  Li29  1  0.91566300  0.62980200  0.16468300  1
  Li  Li30  1  0.88593800  0.86930700  0.36403100  1
  Li  Li31  1  0.88593800  0.13069300  0.86403100  1
  Co  Co32  1  0.12590400  0.89076100  0.10950500  1
  Co  Co33  1  0.12590400  0.10923900  0.60950500  1
  Co  Co34  1  0.37622800  0.38106000  0.11278200  1
  Co  Co35  1  0.37622800  0.61894000  0.61278200  1
  Co  Co36  1  0.61157000  0.89829100  0.38428100  1
  Co  Co37  1  0.61157000  0.10170900  0.88428100  1
  Co  Co38  1  0.87083700  0.38956400  0.37967200  1
  Co  Co39  1  0.87083700  0.61043600  0.87967200  1
  O  O40  1  0.01088400  0.99234600  0.49865600  1
  O  O41  1  0.01088400  0.00765400  0.99865600  1
  O  O42  1  0.01712300  0.79126000  0.23109300  1
  O  O43  1  0.01712300  0.20874000  0.73109300  1
  O  O44  1  0.25238500  0.78886400  0.00676100  1
  O  O45  1  0.25238500  0.21113600  0.50676100  1
  O  O46  1  0.25747300  0.97899200  0.23230800  1
  O  O47  1  0.25747300  0.02100800  0.73230800  1
  O  O48  1  0.28713400  0.49194600  0.22935300  1
  O  O49  1  0.28713400  0.50805400  0.72935300  1
  O  O50  1  0.28022500  0.26638000  0.99293200  1
  O  O51  1  0.28022500  0.73362000  0.49293200  1
  O  O52  1  0.46194000  0.25207200  0.23893800  1
  O  O53  1  0.46194000  0.74792800  0.73893800  1
  O  O54  1  0.49146200  0.51058500  0.49235300  1
  O  O55  1  0.49146200  0.48941500  0.99235300  1
  O  O56  1  0.51084300  0.99767300  0.01418200  1
  O  O57  1  0.51084300  0.00232700  0.51418200  1
  O  O58  1  0.54437300  0.75943700  0.25634500  1
  O  O59  1  0.54437300  0.24056300  0.75634500  1
  O  O60  1  0.74495000  0.78841600  0.50290800  1
  O  O61  1  0.74495000  0.21158400  0.00290800  1
  O  O62  1  0.74374500  0.00140600  0.26757300  1
  O  O63  1  0.74374500  0.99859400  0.76757300  1
  O  O64  1  0.75358100  0.49913200  0.26369100  1
  O  O65  1  0.75358100  0.50086800  0.76369100  1
  O  O66  1  0.75000700  0.28419100  0.49549100  1
  O  O67  1  0.75000700  0.71580900  0.99549100  1
  O  O68  1  0.94242000  0.26131500  0.26493600  1
  O  O69  1  0.94242000  0.73868500  0.76493600  1
  O  O70  1  0.96480500  0.50651600  0.00037800  1
  O  O71  1  0.96480500  0.49348400  0.50037800  1
