# generated using pymatgen
data_Li4Ti2Co3Sb3O16
_symmetry_space_group_name_H-M   'P 1'
_cell_length_a   10.68751483
_cell_length_b   6.13242476
_cell_length_c   9.73956017
_cell_angle_alpha   90.00000000
_cell_angle_beta   90.95481868
_cell_angle_gamma   90.00000000
_symmetry_Int_Tables_number   1
_chemical_formula_structural   Li4Ti2Co3Sb3O16
_chemical_formula_sum   'Li8 Ti4 Co6 Sb6 O32'
_cell_volume   638.24584508
_cell_formula_units_Z   2
loop_
 _symmetry_equiv_pos_site_id
 _symmetry_equiv_pos_as_xyz
  1  'x, y, z'
loop_
 _atom_site_type_symbol
 _atom_site_label
 _atom_site_symmetry_multiplicity
 _atom_site_fract_x
 _atom_site_fract_y
 _atom_site_fract_z
 _atom_site_occupancy
  Li  Li0  1  0.82668100  0.50000000  0.10781300  1
  Li  Li1  1  0.51697200  0.50000000  0.01603700  1
  Li  Li2  1  0.50539375  0.50000000  0.49544350  1
  Li  Li3  1  0.67642750  0.00000000  0.59795550  1
  Li  Li4  1  0.32668100  0.00000000  0.10781300  1
  Li  Li5  1  0.01697200  0.00000000  0.01603700  1
  Li  Li6  1  0.00539375  0.00000000  0.49544350  1
  Li  Li7  1  0.17642750  0.50000000  0.59795550  1
  Ti  Ti8  1  0.82012750  0.50000000  0.49706050  1
  Ti  Ti9  1  0.64017050  0.00000000  0.02783550  1
  Ti  Ti10  1  0.32012750  0.00000000  0.49706050  1
  Ti  Ti11  1  0.14017050  0.50000000  0.02783550  1
  Co  Co12  1  0.67446300  0.50000000  0.78604850  1
  Co  Co13  1  0.57786425  0.75811675  0.28834000  1
  Co  Co14  1  0.57786425  0.24188325  0.28834000  1
  Co  Co15  1  0.17446300  0.00000000  0.78604850  1
  Co  Co16  1  0.07786425  0.25811675  0.28834000  1
  Co  Co17  1  0.07786425  0.74188325  0.28834000  1
  Sb  Sb18  1  0.82310175  0.00000000  0.28408600  1
  Sb  Sb19  1  0.92076575  0.25329825  0.78360400  1
  Sb  Sb20  1  0.92076575  0.74670175  0.78360400  1
  Sb  Sb21  1  0.32310175  0.50000000  0.28408600  1
  Sb  Sb22  1  0.42076575  0.75329825  0.78360400  1
  Sb  Sb23  1  0.42076575  0.24670175  0.78360400  1
  O  O24  1  0.99195075  0.50000000  0.66156000  1
  O  O25  1  0.84273575  0.50000000  0.89763500  1
  O  O26  1  0.50363825  0.50000000  0.68259700  1
  O  O27  1  0.99144000  0.00000000  0.19982100  1
  O  O28  1  0.84924500  0.00000000  0.89670050  1
  O  O29  1  0.67066225  0.50000000  0.41373300  1
  O  O30  1  0.66722725  0.00000000  0.39412100  1
  O  O31  1  0.51235850  0.00000000  0.14703900  1
  O  O32  1  0.90335750  0.24742250  0.40650400  1
  O  O33  1  0.90335750  0.75257750  0.40650400  1
  O  O34  1  0.77004625  0.27991775  0.65646900  1
  O  O35  1  0.77004625  0.72008225  0.65646900  1
  O  O36  1  0.73999000  0.78575000  0.15205300  1
  O  O37  1  0.73999000  0.21425000  0.15205300  1
  O  O38  1  0.58196725  0.75235025  0.90637950  1
  O  O39  1  0.58196725  0.24764975  0.90637950  1
  O  O40  1  0.49195075  0.00000000  0.66156000  1
  O  O41  1  0.34273575  0.00000000  0.89763500  1
  O  O42  1  0.00363825  0.00000000  0.68259700  1
  O  O43  1  0.49144000  0.50000000  0.19982100  1
  O  O44  1  0.34924500  0.50000000  0.89670050  1
  O  O45  1  0.17066225  0.00000000  0.41373300  1
  O  O46  1  0.16722725  0.50000000  0.39412100  1
  O  O47  1  0.01235850  0.50000000  0.14703900  1
  O  O48  1  0.40335750  0.74742250  0.40650400  1
  O  O49  1  0.40335750  0.25257750  0.40650400  1
  O  O50  1  0.27004625  0.77991775  0.65646900  1
  O  O51  1  0.27004625  0.22008225  0.65646900  1
  O  O52  1  0.23999000  0.28575000  0.15205300  1
  O  O53  1  0.23999000  0.71425000  0.15205300  1
  O  O54  1  0.08196725  0.25235025  0.90637950  1
  O  O55  1  0.08196725  0.74764975  0.90637950  1
