# generated using pymatgen
data_V3FeSb2(PO4)6
_symmetry_space_group_name_H-M   'P 1'
_cell_length_a   8.70525381
_cell_length_b   8.70525381
_cell_length_c   22.02767006
_cell_angle_alpha   90.00000000
_cell_angle_beta   90.00000000
_cell_angle_gamma   120.00000000
_symmetry_Int_Tables_number   1
_chemical_formula_structural   V3FeSb2(PO4)6
_chemical_formula_sum   'V9 Fe3 Sb6 P18 O72'
_cell_volume   1445.64637232
_cell_formula_units_Z   3
loop_
 _symmetry_equiv_pos_site_id
 _symmetry_equiv_pos_as_xyz
  1  'x, y, z'
loop_
 _atom_site_type_symbol
 _atom_site_label
 _atom_site_symmetry_multiplicity
 _atom_site_fract_x
 _atom_site_fract_y
 _atom_site_fract_z
 _atom_site_occupancy
  V  V0  1  0.33333333  0.66666667  0.02027967  1
  V  V1  1  0.00000000  0.00000000  0.14567400  1
  V  V2  1  0.33333333  0.66666667  0.31327867  1
  V  V3  1  0.00000000  0.00000000  0.35361300  1
  V  V4  1  0.66666667  0.33333333  0.47900733  1
  V  V5  1  0.00000000  0.00000000  0.64661200  1
  V  V6  1  0.66666667  0.33333333  0.68694633  1
  V  V7  1  0.33333333  0.66666667  0.81234067  1
  V  V8  1  0.66666667  0.33333333  0.97994533  1
  Fe  Fe9  1  0.66666667  0.33333333  0.18303633  1
  Fe  Fe10  1  0.33333333  0.66666667  0.51636967  1
  Fe  Fe11  1  0.00000000  0.00000000  0.84970300  1
  Sb  Sb12  1  0.66666667  0.33333333  0.32803633  1
  Sb  Sb13  1  0.33333333  0.66666667  0.16707967  1
  Sb  Sb14  1  0.33333333  0.66666667  0.66136967  1
  Sb  Sb15  1  0.00000000  0.00000000  0.50041300  1
  Sb  Sb16  1  0.00000000  0.00000000  0.99470300  1
  Sb  Sb17  1  0.66666667  0.33333333  0.83374633  1
  P  P18  1  0.95734900  0.33276300  0.08351800  1
  P  P19  1  0.37541400  0.04265100  0.08351800  1
  P  P20  1  0.66723700  0.62458600  0.08351800  1
  P  P21  1  0.99964700  0.71035000  0.25020600  1
  P  P22  1  0.28965000  0.28929700  0.25020600  1
  P  P23  1  0.71070300  0.00035300  0.25020600  1
  P  P24  1  0.62401567  0.66609633  0.41685133  1
  P  P25  1  0.04208067  0.37598433  0.41685133  1
  P  P26  1  0.33390367  0.95791933  0.41685133  1
  P  P27  1  0.66631367  0.04368333  0.58353933  1
  P  P28  1  0.95631667  0.62263033  0.58353933  1
  P  P29  1  0.37736967  0.33368633  0.58353933  1
  P  P30  1  0.29068233  0.99942967  0.75018467  1
  P  P31  1  0.70874733  0.70931767  0.75018467  1
  P  P32  1  0.00057033  0.29125267  0.75018467  1
  P  P33  1  0.33298033  0.37701667  0.91687267  1
  P  P34  1  0.62298333  0.95596367  0.91687267  1
  P  P35  1  0.04403633  0.66701967  0.91687267  1
  O  O36  1  0.46683633  0.14003267  0.02519867  1
  O  O37  1  0.67319633  0.53316367  0.02519867  1
  O  O38  1  0.85996733  0.32680367  0.02519867  1
  O  O39  1  0.98084533  0.16679867  0.08186867  1
  O  O40  1  0.86716800  0.34109900  0.14237400  1
  O  O41  1  0.14777867  0.50174133  0.08541433  1
  O  O42  1  0.18595333  0.01915467  0.08186867  1
  O  O43  1  0.35396267  0.85222133  0.08541433  1
  O  O44  1  0.00576267  0.80642233  0.19215333  1
  O  O45  1  0.49825867  0.64603733  0.08541433  1
  O  O46  1  0.83033000  0.51764900  0.25236400  1
  O  O47  1  0.19357767  0.19934033  0.19215333  1
  O  O48  1  0.47393100  0.13283200  0.14237400  1
  O  O49  1  0.83320133  0.81404667  0.08186867  1
  O  O50  1  0.16686433  0.68572167  0.24828167  1
  O  O51  1  0.65890100  0.52606900  0.14237400  1
  O  O52  1  0.31427833  0.48114267  0.24828167  1
  O  O53  1  0.48235100  0.31268100  0.25236400  1
  O  O54  1  0.51885733  0.83313567  0.24828167  1
  O  O55  1  0.80065967  0.99423733  0.19215333  1
  O  O56  1  0.68731900  0.16967000  0.25236400  1
  O  O57  1  0.80726567  0.00636233  0.30838233  1
  O  O58  1  0.99363767  0.80090333  0.30838233  1
  O  O59  1  0.19909667  0.19273433  0.30838233  1
  O  O60  1  0.13350300  0.47336600  0.35853200  1
  O  O61  1  0.33986300  0.86649700  0.35853200  1
  O  O62  1  0.52663400  0.66013700  0.35853200  1
  O  O63  1  0.64751200  0.50013200  0.41520200  1
  O  O64  1  0.53383467  0.67443233  0.47570733  1
  O  O65  1  0.81444533  0.83507467  0.41874767  1
  O  O66  1  0.85262000  0.35248800  0.41520200  1
  O  O67  1  0.02062933  0.18555467  0.41874767  1
  O  O68  1  0.67242933  0.13975567  0.52548667  1
  O  O69  1  0.16492533  0.97937067  0.41874767  1
  O  O70  1  0.49699667  0.85098233  0.58569733  1
  O  O71  1  0.86024433  0.53267367  0.52548667  1
  O  O72  1  0.14059767  0.46616533  0.47570733  1
  O  O73  1  0.49986800  0.14738000  0.41520200  1
  O  O74  1  0.83353100  0.01905500  0.58161500  1
  O  O75  1  0.32556767  0.85940233  0.47570733  1
  O  O76  1  0.98094500  0.81447600  0.58161500  1
  O  O77  1  0.14901767  0.64601433  0.58569733  1
  O  O78  1  0.18552400  0.16646900  0.58161500  1
  O  O79  1  0.46732633  0.32757067  0.52548667  1
  O  O80  1  0.35398567  0.50300333  0.58569733  1
  O  O81  1  0.47393233  0.33969567  0.64171567  1
  O  O82  1  0.66030433  0.13423667  0.64171567  1
  O  O83  1  0.86576333  0.52606767  0.64171567  1
  O  O84  1  0.80016967  0.80669933  0.69186533  1
  O  O85  1  0.00652967  0.19983033  0.69186533  1
  O  O86  1  0.19330067  0.99347033  0.69186533  1
  O  O87  1  0.31417867  0.83346533  0.74853533  1
  O  O88  1  0.20050133  0.00776567  0.80904067  1
  O  O89  1  0.48111200  0.16840800  0.75208100  1
  O  O90  1  0.51928667  0.68582133  0.74853533  1
  O  O91  1  0.68729600  0.51888800  0.75208100  1
  O  O92  1  0.33909600  0.47308900  0.85882000  1
  O  O93  1  0.83159200  0.31270400  0.75208100  1
  O  O94  1  0.16366333  0.18431567  0.91903067  1
  O  O95  1  0.52691100  0.86600700  0.85882000  1
  O  O96  1  0.80726433  0.79949867  0.80904067  1
  O  O97  1  0.16653467  0.48071333  0.74853533  1
  O  O98  1  0.50019767  0.35238833  0.91494833  1
  O  O99  1  0.99223433  0.19273567  0.80904067  1
  O  O100  1  0.64761167  0.14780933  0.91494833  1
  O  O101  1  0.81568433  0.97934767  0.91903067  1
  O  O102  1  0.85219067  0.49980233  0.91494833  1
  O  O103  1  0.13399300  0.66090400  0.85882000  1
  O  O104  1  0.02065233  0.83633667  0.91903067  1
  O  O105  1  0.14059900  0.67302900  0.97504900  1
  O  O106  1  0.32697100  0.46757000  0.97504900  1
  O  O107  1  0.53243000  0.85940100  0.97504900  1
