# generated using pymatgen
data_Li4Mn2C4SO16
_symmetry_space_group_name_H-M   'P 1'
_cell_length_a   12.96864200
_cell_length_b   13.51637200
_cell_length_c   13.87088000
_cell_angle_alpha   90.00000000
_cell_angle_beta   90.00000000
_cell_angle_gamma   90.00000000
_symmetry_Int_Tables_number   1
_chemical_formula_structural   Li4Mn2C4SO16
_chemical_formula_sum   'Li32 Mn16 C32 S8 O128'
_cell_volume   2431.41254016
_cell_formula_units_Z   8
loop_
 _symmetry_equiv_pos_site_id
 _symmetry_equiv_pos_as_xyz
  1  'x, y, z'
loop_
 _atom_site_type_symbol
 _atom_site_label
 _atom_site_symmetry_multiplicity
 _atom_site_fract_x
 _atom_site_fract_y
 _atom_site_fract_z
 _atom_site_occupancy
  Li  Li0  1  0.95445900  0.75000000  0.25000000  1
  Li  Li1  1  0.50000000  0.30070500  0.00000000  1
  Li  Li2  1  0.20445900  0.00000000  0.00000000  1
  Li  Li3  1  0.75000000  0.55070500  0.25000000  1
  Li  Li4  1  0.50000000  0.69929500  0.00000000  1
  Li  Li5  1  0.54554100  0.75000000  0.25000000  1
  Li  Li6  1  0.75000000  0.94929500  0.25000000  1
  Li  Li7  1  0.79554100  0.00000000  0.00000000  1
  Li  Li8  1  0.95445900  0.25000000  0.75000000  1
  Li  Li9  1  0.50000000  0.80070500  0.50000000  1
  Li  Li10  1  0.20445900  0.50000000  0.50000000  1
  Li  Li11  1  0.75000000  0.05070500  0.75000000  1
  Li  Li12  1  0.50000000  0.19929500  0.50000000  1
  Li  Li13  1  0.54554100  0.25000000  0.75000000  1
  Li  Li14  1  0.75000000  0.44929500  0.75000000  1
  Li  Li15  1  0.79554100  0.50000000  0.50000000  1
  Li  Li16  1  0.45445900  0.75000000  0.75000000  1
  Li  Li17  1  0.00000000  0.30070500  0.50000000  1
  Li  Li18  1  0.70445900  0.00000000  0.50000000  1
  Li  Li19  1  0.25000000  0.55070500  0.75000000  1
  Li  Li20  1  0.00000000  0.69929500  0.50000000  1
  Li  Li21  1  0.04554100  0.75000000  0.75000000  1
  Li  Li22  1  0.25000000  0.94929500  0.75000000  1
  Li  Li23  1  0.29554100  0.00000000  0.50000000  1
  Li  Li24  1  0.45445900  0.25000000  0.25000000  1
  Li  Li25  1  0.00000000  0.80070500  0.00000000  1
  Li  Li26  1  0.70445900  0.50000000  0.00000000  1
  Li  Li27  1  0.25000000  0.05070500  0.25000000  1
  Li  Li28  1  0.00000000  0.19929500  0.00000000  1
  Li  Li29  1  0.04554100  0.25000000  0.25000000  1
  Li  Li30  1  0.25000000  0.44929500  0.25000000  1
  Li  Li31  1  0.29554100  0.50000000  0.00000000  1
  Mn  Mn32  1  0.62500000  0.12500000  0.12500000  1
  Mn  Mn33  1  0.87500000  0.12500000  0.37500000  1
  Mn  Mn34  1  0.12500000  0.87500000  0.37500000  1
  Mn  Mn35  1  0.37500000  0.87500000  0.12500000  1
  Mn  Mn36  1  0.62500000  0.62500000  0.62500000  1
  Mn  Mn37  1  0.87500000  0.62500000  0.87500000  1
  Mn  Mn38  1  0.12500000  0.37500000  0.87500000  1
  Mn  Mn39  1  0.37500000  0.37500000  0.62500000  1
  Mn  Mn40  1  0.12500000  0.12500000  0.62500000  1
  Mn  Mn41  1  0.37500000  0.12500000  0.87500000  1
  Mn  Mn42  1  0.62500000  0.87500000  0.87500000  1
  Mn  Mn43  1  0.87500000  0.87500000  0.62500000  1
  Mn  Mn44  1  0.12500000  0.62500000  0.12500000  1
  Mn  Mn45  1  0.37500000  0.62500000  0.37500000  1
  Mn  Mn46  1  0.62500000  0.37500000  0.37500000  1
  Mn  Mn47  1  0.87500000  0.37500000  0.12500000  1
  C  C48  1  0.65210250  0.34979050  0.16416200  1
  C  C49  1  0.84789750  0.34979050  0.33583800  1
  C  C50  1  0.65210250  0.15020950  0.33583800  1
  C  C51  1  0.84789750  0.15020950  0.16416200  1
  C  C52  1  0.40210250  0.09979050  0.08583800  1
  C  C53  1  0.09789750  0.09979050  0.41416200  1
  C  C54  1  0.90210250  0.90020950  0.41416200  1
  C  C55  1  0.59789750  0.90020950  0.08583800  1
  C  C56  1  0.65210250  0.84979050  0.66416200  1
  C  C57  1  0.84789750  0.84979050  0.83583800  1
  C  C58  1  0.65210250  0.65020950  0.83583800  1
  C  C59  1  0.84789750  0.65020950  0.66416200  1
  C  C60  1  0.40210250  0.59979050  0.58583800  1
  C  C61  1  0.09789750  0.59979050  0.91416200  1
  C  C62  1  0.90210250  0.40020950  0.91416200  1
  C  C63  1  0.59789750  0.40020950  0.58583800  1
  C  C64  1  0.15210250  0.34979050  0.66416200  1
  C  C65  1  0.34789750  0.34979050  0.83583800  1
  C  C66  1  0.15210250  0.15020950  0.83583800  1
  C  C67  1  0.34789750  0.15020950  0.66416200  1
  C  C68  1  0.90210250  0.09979050  0.58583800  1
  C  C69  1  0.59789750  0.09979050  0.91416200  1
  C  C70  1  0.40210250  0.90020950  0.91416200  1
  C  C71  1  0.09789750  0.90020950  0.58583800  1
  C  C72  1  0.15210250  0.84979050  0.16416200  1
  C  C73  1  0.34789750  0.84979050  0.33583800  1
  C  C74  1  0.15210250  0.65020950  0.33583800  1
  C  C75  1  0.34789750  0.65020950  0.16416200  1
  C  C76  1  0.90210250  0.59979050  0.08583800  1
  C  C77  1  0.59789750  0.59979050  0.41416200  1
  C  C78  1  0.40210250  0.40020950  0.41416200  1
  C  C79  1  0.09789750  0.40020950  0.08583800  1
  S  S80  1  0.00000000  0.00000000  0.00000000  1
  S  S81  1  0.75000000  0.75000000  0.25000000  1
  S  S82  1  0.00000000  0.50000000  0.50000000  1
  S  S83  1  0.75000000  0.25000000  0.75000000  1
  S  S84  1  0.50000000  0.00000000  0.50000000  1
  S  S85  1  0.25000000  0.75000000  0.75000000  1
  S  S86  1  0.50000000  0.50000000  0.00000000  1
  S  S87  1  0.25000000  0.25000000  0.25000000  1
  O  O88  1  0.58320650  0.28333200  0.15102650  1
  O  O89  1  0.58320650  0.21666800  0.34897350  1
  O  O90  1  0.72532950  0.36022000  0.10018550  1
  O  O91  1  0.93117900  0.56559650  0.44156950  1
  O  O92  1  0.77467050  0.36022000  0.39981450  1
  O  O93  1  0.56882100  0.56559650  0.05843050  1
  O  O94  1  0.93117900  0.93440350  0.05843050  1
  O  O95  1  0.90105800  0.84166400  0.48815200  1
  O  O96  1  0.65105800  0.09166400  0.26184800  1
  O  O97  1  0.72532950  0.13978000  0.39981450  1
  O  O98  1  0.56882100  0.93440350  0.44156950  1
  O  O99  1  0.77467050  0.13978000  0.10018550  1
  O  O100  1  0.91679350  0.28333200  0.34897350  1
  O  O101  1  0.91679350  0.21666800  0.15102650  1
  O  O102  1  0.40105800  0.15833600  0.01184800  1
  O  O103  1  0.65105800  0.40833600  0.23815200  1
  O  O104  1  0.59894200  0.84166400  0.01184800  1
  O  O105  1  0.84894200  0.09166400  0.23815200  1
  O  O106  1  0.33320650  0.03333200  0.09897350  1
  O  O107  1  0.83320650  0.96666800  0.40102650  1
  O  O108  1  0.47532950  0.11022000  0.14981450  1
  O  O109  1  0.68117900  0.81559650  0.30843050  1
  O  O110  1  0.02467050  0.11022000  0.35018550  1
  O  O111  1  0.09894200  0.15833600  0.48815200  1
  O  O112  1  0.84894200  0.40833600  0.26184800  1
  O  O113  1  0.81882100  0.81559650  0.19156950  1
  O  O114  1  0.68117900  0.68440350  0.19156950  1
  O  O115  1  0.97532950  0.88978000  0.35018550  1
  O  O116  1  0.81882100  0.68440350  0.30843050  1
  O  O117  1  0.52467050  0.88978000  0.14981450  1
  O  O118  1  0.16679350  0.03333200  0.40102650  1
  O  O119  1  0.66679350  0.96666800  0.09897350  1
  O  O120  1  0.58320650  0.78333200  0.65102650  1
  O  O121  1  0.58320650  0.71666800  0.84897350  1
  O  O122  1  0.72532950  0.86022000  0.60018550  1
  O  O123  1  0.93117900  0.06559650  0.94156950  1
  O  O124  1  0.77467050  0.86022000  0.89981450  1
  O  O125  1  0.56882100  0.06559650  0.55843050  1
  O  O126  1  0.93117900  0.43440350  0.55843050  1
  O  O127  1  0.90105800  0.34166400  0.98815200  1
  O  O128  1  0.65105800  0.59166400  0.76184800  1
  O  O129  1  0.72532950  0.63978000  0.89981450  1
  O  O130  1  0.56882100  0.43440350  0.94156950  1
  O  O131  1  0.77467050  0.63978000  0.60018550  1
  O  O132  1  0.91679350  0.78333200  0.84897350  1
  O  O133  1  0.91679350  0.71666800  0.65102650  1
  O  O134  1  0.40105800  0.65833600  0.51184800  1
  O  O135  1  0.65105800  0.90833600  0.73815200  1
  O  O136  1  0.59894200  0.34166400  0.51184800  1
  O  O137  1  0.84894200  0.59166400  0.73815200  1
  O  O138  1  0.33320650  0.53333200  0.59897350  1
  O  O139  1  0.83320650  0.46666800  0.90102650  1
  O  O140  1  0.47532950  0.61022000  0.64981450  1
  O  O141  1  0.68117900  0.31559650  0.80843050  1
  O  O142  1  0.02467050  0.61022000  0.85018550  1
  O  O143  1  0.09894200  0.65833600  0.98815200  1
  O  O144  1  0.84894200  0.90833600  0.76184800  1
  O  O145  1  0.81882100  0.31559650  0.69156950  1
  O  O146  1  0.68117900  0.18440350  0.69156950  1
  O  O147  1  0.97532950  0.38978000  0.85018550  1
  O  O148  1  0.81882100  0.18440350  0.80843050  1
  O  O149  1  0.52467050  0.38978000  0.64981450  1
  O  O150  1  0.16679350  0.53333200  0.90102650  1
  O  O151  1  0.66679350  0.46666800  0.59897350  1
  O  O152  1  0.08320650  0.28333200  0.65102650  1
  O  O153  1  0.08320650  0.21666800  0.84897350  1
  O  O154  1  0.22532950  0.36022000  0.60018550  1
  O  O155  1  0.43117900  0.56559650  0.94156950  1
  O  O156  1  0.27467050  0.36022000  0.89981450  1
  O  O157  1  0.06882100  0.56559650  0.55843050  1
  O  O158  1  0.43117900  0.93440350  0.55843050  1
  O  O159  1  0.40105800  0.84166400  0.98815200  1
  O  O160  1  0.15105800  0.09166400  0.76184800  1
  O  O161  1  0.22532950  0.13978000  0.89981450  1
  O  O162  1  0.06882100  0.93440350  0.94156950  1
  O  O163  1  0.27467050  0.13978000  0.60018550  1
  O  O164  1  0.41679350  0.28333200  0.84897350  1
  O  O165  1  0.41679350  0.21666800  0.65102650  1
  O  O166  1  0.90105800  0.15833600  0.51184800  1
  O  O167  1  0.15105800  0.40833600  0.73815200  1
  O  O168  1  0.09894200  0.84166400  0.51184800  1
  O  O169  1  0.34894200  0.09166400  0.73815200  1
  O  O170  1  0.83320650  0.03333200  0.59897350  1
  O  O171  1  0.33320650  0.96666800  0.90102650  1
  O  O172  1  0.97532950  0.11022000  0.64981450  1
  O  O173  1  0.18117900  0.81559650  0.80843050  1
  O  O174  1  0.52467050  0.11022000  0.85018550  1
  O  O175  1  0.59894200  0.15833600  0.98815200  1
  O  O176  1  0.34894200  0.40833600  0.76184800  1
  O  O177  1  0.31882100  0.81559650  0.69156950  1
  O  O178  1  0.18117900  0.68440350  0.69156950  1
  O  O179  1  0.47532950  0.88978000  0.85018550  1
  O  O180  1  0.31882100  0.68440350  0.80843050  1
  O  O181  1  0.02467050  0.88978000  0.64981450  1
  O  O182  1  0.66679350  0.03333200  0.90102650  1
  O  O183  1  0.16679350  0.96666800  0.59897350  1
  O  O184  1  0.08320650  0.78333200  0.15102650  1
  O  O185  1  0.08320650  0.71666800  0.34897350  1
  O  O186  1  0.22532950  0.86022000  0.10018550  1
  O  O187  1  0.43117900  0.06559650  0.44156950  1
  O  O188  1  0.27467050  0.86022000  0.39981450  1
  O  O189  1  0.06882100  0.06559650  0.05843050  1
  O  O190  1  0.43117900  0.43440350  0.05843050  1
  O  O191  1  0.40105800  0.34166400  0.48815200  1
  O  O192  1  0.15105800  0.59166400  0.26184800  1
  O  O193  1  0.22532950  0.63978000  0.39981450  1
  O  O194  1  0.06882100  0.43440350  0.44156950  1
  O  O195  1  0.27467050  0.63978000  0.10018550  1
  O  O196  1  0.41679350  0.78333200  0.34897350  1
  O  O197  1  0.41679350  0.71666800  0.15102650  1
  O  O198  1  0.90105800  0.65833600  0.01184800  1
  O  O199  1  0.15105800  0.90833600  0.23815200  1
  O  O200  1  0.09894200  0.34166400  0.01184800  1
  O  O201  1  0.34894200  0.59166400  0.23815200  1
  O  O202  1  0.83320650  0.53333200  0.09897350  1
  O  O203  1  0.33320650  0.46666800  0.40102650  1
  O  O204  1  0.97532950  0.61022000  0.14981450  1
  O  O205  1  0.18117900  0.31559650  0.30843050  1
  O  O206  1  0.52467050  0.61022000  0.35018550  1
  O  O207  1  0.59894200  0.65833600  0.48815200  1
  O  O208  1  0.34894200  0.90833600  0.26184800  1
  O  O209  1  0.31882100  0.31559650  0.19156950  1
  O  O210  1  0.18117900  0.18440350  0.19156950  1
  O  O211  1  0.47532950  0.38978000  0.35018550  1
  O  O212  1  0.31882100  0.18440350  0.30843050  1
  O  O213  1  0.02467050  0.38978000  0.14981450  1
  O  O214  1  0.66679350  0.53333200  0.40102650  1
  O  O215  1  0.16679350  0.46666800  0.09897350  1
