# generated using pymatgen
data_Na5Ti3O8
_symmetry_space_group_name_H-M   'P 1'
_cell_length_a   6.16841214
_cell_length_b   6.16841214
_cell_length_c   16.23050633
_cell_angle_alpha   90.00000000
_cell_angle_beta   90.00000000
_cell_angle_gamma   120.00000000
_symmetry_Int_Tables_number   1
_chemical_formula_structural   Na5Ti3O8
_chemical_formula_sum   'Na15 Ti9 O24'
_cell_volume   534.82224933
_cell_formula_units_Z   3
loop_
 _symmetry_equiv_pos_site_id
 _symmetry_equiv_pos_as_xyz
  1  'x, y, z'
loop_
 _atom_site_type_symbol
 _atom_site_label
 _atom_site_symmetry_multiplicity
 _atom_site_fract_x
 _atom_site_fract_y
 _atom_site_fract_z
 _atom_site_occupancy
  Na  Na0  1  0.83333333  0.16666667  0.16666667  1
  Na  Na1  1  0.00000000  0.00000000  0.00000000  1
  Na  Na2  1  0.83333333  0.66666667  0.16666667  1
  Na  Na3  1  0.33333333  0.16666667  0.16666667  1
  Na  Na4  1  0.33333333  0.66666667  0.16666667  1
  Na  Na5  1  0.50000000  0.50000000  0.50000000  1
  Na  Na6  1  0.66666667  0.33333333  0.33333333  1
  Na  Na7  1  0.50000000  0.00000000  0.50000000  1
  Na  Na8  1  0.00000000  0.50000000  0.50000000  1
  Na  Na9  1  1.00000000  1.00000000  0.50000000  1
  Na  Na10  1  0.16666667  0.83333333  0.83333333  1
  Na  Na11  1  0.33333333  0.66666667  0.66666667  1
  Na  Na12  1  0.16666667  0.33333333  0.83333333  1
  Na  Na13  1  0.66666667  0.83333333  0.83333333  1
  Na  Na14  1  0.66666667  0.33333333  0.83333333  1
  Ti  Ti15  1  0.00000000  0.50000000  0.00000000  1
  Ti  Ti16  1  0.50000000  0.50000000  0.00000000  1
  Ti  Ti17  1  0.50000000  0.00000000  0.00000000  1
  Ti  Ti18  1  0.66666667  0.83333333  0.33333333  1
  Ti  Ti19  1  0.16666667  0.83333333  0.33333333  1
  Ti  Ti20  1  0.16666667  0.33333333  0.33333333  1
  Ti  Ti21  1  0.33333333  0.16666667  0.66666667  1
  Ti  Ti22  1  0.83333333  0.16666667  0.66666667  1
  Ti  Ti23  1  0.83333333  0.66666667  0.66666667  1
  O  O24  1  0.00000000  0.00000000  0.26433700  1
  O  O25  1  0.03144267  0.51572133  0.26665133  1
  O  O26  1  0.48427867  0.96855733  0.26665133  1
  O  O27  1  0.18238800  0.36477600  0.06668200  1
  O  O28  1  0.18238800  0.81761200  0.06668200  1
  O  O29  1  0.66666667  0.33333333  0.06899633  1
  O  O30  1  0.48427867  0.51572133  0.26665133  1
  O  O31  1  0.63522400  0.81761200  0.06668200  1
  O  O32  1  0.66666667  0.33333333  0.59767033  1
  O  O33  1  0.69810933  0.84905467  0.59998467  1
  O  O34  1  0.15094533  0.30189067  0.59998467  1
  O  O35  1  0.84905467  0.69810933  0.40001533  1
  O  O36  1  0.84905467  0.15094533  0.40001533  1
  O  O37  1  0.33333333  0.66666667  0.40232967  1
  O  O38  1  0.15094533  0.84905467  0.59998467  1
  O  O39  1  0.30189067  0.15094533  0.40001533  1
  O  O40  1  0.33333333  0.66666667  0.93100367  1
  O  O41  1  0.36477600  0.18238800  0.93331800  1
  O  O42  1  0.81761200  0.63522400  0.93331800  1
  O  O43  1  0.51572133  0.03144267  0.73334867  1
  O  O44  1  0.51572133  0.48427867  0.73334867  1
  O  O45  1  0.00000000  0.00000000  0.73566300  1
  O  O46  1  0.81761200  0.18238800  0.93331800  1
  O  O47  1  0.96855733  0.48427867  0.73334867  1
