# generated using pymatgen
data_Fe4OF7
_symmetry_space_group_name_H-M   'P 1'
_cell_length_a   9.39293600
_cell_length_b   6.84185800
_cell_length_c   9.37469476
_cell_angle_alpha   90.00000000
_cell_angle_beta   94.94976479
_cell_angle_gamma   90.00000000
_symmetry_Int_Tables_number   1
_chemical_formula_structural   Fe4OF7
_chemical_formula_sum   'Fe16 O4 F28'
_cell_volume   600.21925998
_cell_formula_units_Z   4
loop_
 _symmetry_equiv_pos_site_id
 _symmetry_equiv_pos_as_xyz
  1  'x, y, z'
loop_
 _atom_site_type_symbol
 _atom_site_label
 _atom_site_symmetry_multiplicity
 _atom_site_fract_x
 _atom_site_fract_y
 _atom_site_fract_z
 _atom_site_occupancy
  Fe  Fe0  1  0.61470300  0.74181200  0.36487300  1
  Fe  Fe1  1  0.38529700  0.25818800  0.63512700  1
  Fe  Fe2  1  0.50000000  0.27045900  0.25000000  1
  Fe  Fe3  1  0.75000000  0.75000000  0.00000000  1
  Fe  Fe4  1  0.75000000  0.25000000  0.50000000  1
  Fe  Fe5  1  0.61470300  0.25818800  0.86487300  1
  Fe  Fe6  1  0.38529700  0.74181200  0.13512700  1
  Fe  Fe7  1  0.50000000  0.72954100  0.75000000  1
  Fe  Fe8  1  0.11470300  0.24181200  0.36487300  1
  Fe  Fe9  1  0.88529700  0.75818800  0.63512700  1
  Fe  Fe10  1  0.00000000  0.77045900  0.25000000  1
  Fe  Fe11  1  0.25000000  0.25000000  0.00000000  1
  Fe  Fe12  1  0.25000000  0.75000000  0.50000000  1
  Fe  Fe13  1  0.11470300  0.75818800  0.86487300  1
  Fe  Fe14  1  0.88529700  0.24181200  0.13512700  1
  Fe  Fe15  1  0.00000000  0.22954100  0.75000000  1
  O  O16  1  0.50000000  0.55451400  0.25000000  1
  O  O17  1  0.50000000  0.44548600  0.75000000  1
  O  O18  1  0.00000000  0.05451400  0.25000000  1
  O  O19  1  0.00000000  0.94548600  0.75000000  1
  F  F20  1  0.25031600  0.05859900  0.50188200  1
  F  F21  1  0.50000000  0.96586000  0.25000000  1
  F  F22  1  0.74968400  0.94140100  0.49811800  1
  F  F23  1  0.52394550  0.76043750  0.98090800  1
  F  F24  1  0.26922150  0.25094250  0.22620000  1
  F  F25  1  0.52394550  0.23956250  0.48090800  1
  F  F26  1  0.26922150  0.74905750  0.72620000  1
  F  F27  1  0.47605450  0.23956250  0.01909200  1
  F  F28  1  0.73077850  0.74905750  0.77380000  1
  F  F29  1  0.73077850  0.25094250  0.27380000  1
  F  F30  1  0.47605450  0.76043750  0.51909200  1
  F  F31  1  0.74968400  0.05859900  0.99811800  1
  F  F32  1  0.50000000  0.03414000  0.75000000  1
  F  F33  1  0.25031600  0.94140100  0.00188200  1
  F  F34  1  0.75031600  0.55859900  0.50188200  1
  F  F35  1  0.00000000  0.46586000  0.25000000  1
  F  F36  1  0.24968400  0.44140100  0.49811800  1
  F  F37  1  0.02394550  0.26043750  0.98090800  1
  F  F38  1  0.76922150  0.75094250  0.22620000  1
  F  F39  1  0.02394550  0.73956250  0.48090800  1
  F  F40  1  0.76922150  0.24905750  0.72620000  1
  F  F41  1  0.97605450  0.73956250  0.01909200  1
  F  F42  1  0.23077850  0.24905750  0.77380000  1
  F  F43  1  0.23077850  0.75094250  0.27380000  1
  F  F44  1  0.97605450  0.26043750  0.51909200  1
  F  F45  1  0.24968400  0.55859900  0.99811800  1
  F  F46  1  0.00000000  0.53414000  0.75000000  1
  F  F47  1  0.75031600  0.44140100  0.00188200  1
