# generated using pymatgen
data_Cr2OF2
_symmetry_space_group_name_H-M   'P 1'
_cell_length_a   6.05581200
_cell_length_b   6.05581200
_cell_length_c   10.83278600
_cell_angle_alpha   90.00000000
_cell_angle_beta   90.00000000
_cell_angle_gamma   90.00000000
_symmetry_Int_Tables_number   1
_chemical_formula_structural   Cr2OF2
_chemical_formula_sum   'Cr8 O4 F8'
_cell_volume   397.26923333
_cell_formula_units_Z   4
loop_
 _symmetry_equiv_pos_site_id
 _symmetry_equiv_pos_as_xyz
  1  'x, y, z'
loop_
 _atom_site_type_symbol
 _atom_site_label
 _atom_site_symmetry_multiplicity
 _atom_site_fract_x
 _atom_site_fract_y
 _atom_site_fract_z
 _atom_site_occupancy
  Cr  Cr0  1  0.50000000  0.25000000  0.12500000  1
  Cr  Cr1  1  0.50000000  0.75000000  0.12500000  1
  Cr  Cr2  1  0.75000000  0.00000000  0.37500000  1
  Cr  Cr3  1  0.25000000  0.00000000  0.37500000  1
  Cr  Cr4  1  0.00000000  0.75000000  0.62500000  1
  Cr  Cr5  1  0.00000000  0.25000000  0.62500000  1
  Cr  Cr6  1  0.25000000  0.50000000  0.87500000  1
  Cr  Cr7  1  0.75000000  0.50000000  0.87500000  1
  O  O8  1  0.50000000  0.50000000  0.00000000  1
  O  O9  1  0.50000000  0.00000000  0.25000000  1
  O  O10  1  0.00000000  0.00000000  0.50000000  1
  O  O11  1  0.00000000  0.50000000  0.75000000  1
  F  F12  1  0.50000000  0.00000000  0.00248500  1
  F  F13  1  0.00000000  0.00000000  0.25248500  1
  F  F14  1  0.50000000  0.50000000  0.24751500  1
  F  F15  1  0.50000000  0.00000000  0.49751500  1
  F  F16  1  0.00000000  0.50000000  0.50248500  1
  F  F17  1  0.50000000  0.50000000  0.75248500  1
  F  F18  1  0.00000000  0.00000000  0.74751500  1
  F  F19  1  0.00000000  0.50000000  0.99751500  1
