# generated using pymatgen
data_Li5Co5(CuO6)2
_symmetry_space_group_name_H-M   'P 1'
_cell_length_a   5.16034186
_cell_length_b   8.60572420
_cell_length_c   9.54342946
_cell_angle_alpha   90.00000000
_cell_angle_beta   99.01624016
_cell_angle_gamma   90.00000000
_symmetry_Int_Tables_number   1
_chemical_formula_structural   Li5Co5(CuO6)2
_chemical_formula_sum   'Li10 Co10 Cu4 O24'
_cell_volume   418.57258225
_cell_formula_units_Z   2
loop_
 _symmetry_equiv_pos_site_id
 _symmetry_equiv_pos_as_xyz
  1  'x, y, z'
loop_
 _atom_site_type_symbol
 _atom_site_label
 _atom_site_symmetry_multiplicity
 _atom_site_fract_x
 _atom_site_fract_y
 _atom_site_fract_z
 _atom_site_occupancy
  Li  Li0  1  0.74347000  0.08168200  0.24174200  1
  Li  Li1  1  0.76097300  0.91662000  0.75717200  1
  Li  Li2  1  0.25653000  0.08168200  0.75825800  1
  Li  Li3  1  0.23902700  0.91662000  0.24282800  1
  Li  Li4  1  0.50000000  0.58153450  0.00000000  1
  Li  Li5  1  0.24347000  0.58168200  0.24174200  1
  Li  Li6  1  0.26097300  0.41662000  0.75717200  1
  Li  Li7  1  0.75653000  0.58168200  0.75825800  1
  Li  Li8  1  0.73902700  0.41662000  0.24282800  1
  Li  Li9  1  0.00000000  0.08153450  0.00000000  1
  Co  Co10  1  0.50000000  0.42018150  0.50000000  1
  Co  Co11  1  0.25617050  0.74382850  0.75715100  1
  Co  Co12  1  0.24382950  0.24382850  0.24284900  1
  Co  Co13  1  0.50000000  0.08690750  0.50000000  1
  Co  Co14  1  0.50000000  0.91374500  0.00000000  1
  Co  Co15  1  0.00000000  0.92018150  0.50000000  1
  Co  Co16  1  0.75617050  0.24382850  0.75715100  1
  Co  Co17  1  0.74382950  0.74382850  0.24284900  1
  Co  Co18  1  0.00000000  0.58690750  0.50000000  1
  Co  Co19  1  0.00000000  0.41374500  0.00000000  1
  Cu  Cu20  1  0.50000000  0.24563200  0.00000000  1
  Cu  Cu21  1  0.50000000  0.75405950  0.50000000  1
  Cu  Cu22  1  0.00000000  0.74563200  0.00000000  1
  Cu  Cu23  1  0.00000000  0.25405950  0.50000000  1
  O  O24  1  0.57625500  0.25468500  0.37578200  1
  O  O25  1  0.85315000  0.08691400  0.61026900  1
  O  O26  1  0.61366450  0.08032250  0.88207900  1
  O  O27  1  0.42374500  0.25468500  0.62421800  1
  O  O28  1  0.38633550  0.08032250  0.11792100  1
  O  O29  1  0.84767750  0.90142150  0.11551700  1
  O  O30  1  0.64693800  0.92285900  0.39486900  1
  O  O31  1  0.14685000  0.08691400  0.38973100  1
  O  O32  1  0.58358850  0.75805850  0.86573700  1
  O  O33  1  0.35306200  0.92285900  0.60513100  1
  O  O34  1  0.15232250  0.90142150  0.88448300  1
  O  O35  1  0.41641150  0.75805850  0.13426300  1
  O  O36  1  0.07625500  0.75468500  0.37578200  1
  O  O37  1  0.35315000  0.58691400  0.61026900  1
  O  O38  1  0.11366450  0.58032250  0.88207900  1
  O  O39  1  0.92374500  0.75468500  0.62421800  1
  O  O40  1  0.88633550  0.58032250  0.11792100  1
  O  O41  1  0.34767750  0.40142150  0.11551700  1
  O  O42  1  0.14693800  0.42285900  0.39486900  1
  O  O43  1  0.64685000  0.58691400  0.38973100  1
  O  O44  1  0.08358850  0.25805850  0.86573700  1
  O  O45  1  0.85306200  0.42285900  0.60513100  1
  O  O46  1  0.65232250  0.40142150  0.88448300  1
  O  O47  1  0.91641150  0.25805850  0.13426300  1
