# generated using pymatgen
data_Li11Ti24O48
_symmetry_space_group_name_H-M   'P 1'
_cell_length_a   10.36552800
_cell_length_b   17.95339400
_cell_length_c   10.36539213
_cell_angle_alpha   90.00000000
_cell_angle_beta   109.46374731
_cell_angle_gamma   90.00000000
_symmetry_Int_Tables_number   1
_chemical_formula_structural   Li11Ti24O48
_chemical_formula_sum   'Li22 Ti48 O96'
_cell_volume   1818.72689683
_cell_formula_units_Z   2
loop_
 _symmetry_equiv_pos_site_id
 _symmetry_equiv_pos_as_xyz
  1  'x, y, z'
loop_
 _atom_site_type_symbol
 _atom_site_label
 _atom_site_symmetry_multiplicity
 _atom_site_fract_x
 _atom_site_fract_y
 _atom_site_fract_z
 _atom_site_occupancy
  Li  Li0  1  0.37499600  0.16664700  0.62505300  1
  Li  Li1  1  0.50005300  0.33335700  0.50006300  1
  Li  Li2  1  0.37499600  0.83335300  0.62505300  1
  Li  Li3  1  0.37524250  0.33368050  0.12468400  1
  Li  Li4  1  0.49995800  0.00000000  0.50006200  1
  Li  Li5  1  0.50005300  0.66664300  0.50006300  1
  Li  Li6  1  0.49997400  0.16666700  0.99993300  1
  Li  Li7  1  0.87530300  0.00000000  0.62578400  1
  Li  Li8  1  0.37420200  0.00000000  0.12468000  1
  Li  Li9  1  0.37524250  0.66631950  0.12468400  1
  Li  Li10  1  0.49997400  0.83333300  0.99993300  1
  Li  Li11  1  0.87499600  0.66664700  0.62505300  1
  Li  Li12  1  0.00005300  0.83335700  0.50006300  1
  Li  Li13  1  0.87499600  0.33335300  0.62505300  1
  Li  Li14  1  0.87524250  0.83368050  0.12468400  1
  Li  Li15  1  0.99995800  0.50000000  0.50006200  1
  Li  Li16  1  0.00005300  0.16664300  0.50006300  1
  Li  Li17  1  0.99997400  0.66666700  0.99993300  1
  Li  Li18  1  0.37530300  0.50000000  0.62578400  1
  Li  Li19  1  0.87420200  0.50000000  0.12468000  1
  Li  Li20  1  0.87524250  0.16631950  0.12468400  1
  Li  Li21  1  0.99997400  0.33333300  0.99993300  1
  Ti  Ti22  1  0.18614900  0.08311400  0.81391300  1
  Ti  Ti23  1  0.43858450  0.33434350  0.81390400  1
  Ti  Ti24  1  0.18614900  0.91688600  0.81391300  1
  Ti  Ti25  1  0.68916850  0.08252750  0.81389900  1
  Ti  Ti26  1  0.68738400  0.24998400  0.81205000  1
  Ti  Ti27  1  0.18610200  0.08252900  0.31083100  1
  Ti  Ti28  1  0.43726300  0.00000000  0.81204700  1
  Ti  Ti29  1  0.43858450  0.66565650  0.81390400  1
  Ti  Ti30  1  0.18797000  0.00000000  0.56280000  1
  Ti  Ti31  1  0.18610200  0.16567300  0.06133100  1
  Ti  Ti32  1  0.68748300  0.16686400  0.56302100  1
  Ti  Ti33  1  0.43707150  0.16687850  0.31250500  1
  Ti  Ti34  1  0.68916850  0.91747250  0.81389900  1
  Ti  Ti35  1  0.18610200  0.91747100  0.31083100  1
  Ti  Ti36  1  0.68806750  0.25009750  0.31251000  1
  Ti  Ti37  1  0.68740100  0.08302400  0.31254700  1
  Ti  Ti38  1  0.68738400  0.75001600  0.81205000  1
  Ti  Ti39  1  0.43707150  0.83312150  0.31250500  1
  Ti  Ti40  1  0.18610200  0.83432700  0.06133100  1
  Ti  Ti41  1  0.68748300  0.83313600  0.56302100  1
  Ti  Ti42  1  0.68740100  0.91697600  0.31254700  1
  Ti  Ti43  1  0.68806750  0.74990250  0.31251000  1
  Ti  Ti44  1  0.93863100  0.00000000  0.31085300  1
  Ti  Ti45  1  0.68913200  0.00000000  0.06131400  1
  Ti  Ti46  1  0.68614900  0.58311400  0.81391300  1
  Ti  Ti47  1  0.93858450  0.83434350  0.81390400  1
  Ti  Ti48  1  0.68614900  0.41688600  0.81391300  1
  Ti  Ti49  1  0.18916850  0.58252750  0.81389900  1
  Ti  Ti50  1  0.18738400  0.74998400  0.81205000  1
  Ti  Ti51  1  0.68610200  0.58252900  0.31083100  1
  Ti  Ti52  1  0.93726300  0.50000000  0.81204700  1
  Ti  Ti53  1  0.93858450  0.16565650  0.81390400  1
  Ti  Ti54  1  0.68797000  0.50000000  0.56280000  1
  Ti  Ti55  1  0.68610200  0.66567300  0.06133100  1
  Ti  Ti56  1  0.18748300  0.66686400  0.56302100  1
  Ti  Ti57  1  0.93707150  0.66687850  0.31250500  1
  Ti  Ti58  1  0.18916850  0.41747250  0.81389900  1
  Ti  Ti59  1  0.68610200  0.41747100  0.31083100  1
  Ti  Ti60  1  0.18806750  0.75009750  0.31251000  1
  Ti  Ti61  1  0.18740100  0.58302400  0.31254700  1
  Ti  Ti62  1  0.18738400  0.25001600  0.81205000  1
  Ti  Ti63  1  0.93707150  0.33312150  0.31250500  1
  Ti  Ti64  1  0.68610200  0.33432700  0.06133100  1
  Ti  Ti65  1  0.18748300  0.33313600  0.56302100  1
  Ti  Ti66  1  0.18740100  0.41697600  0.31254700  1
  Ti  Ti67  1  0.18806750  0.24990250  0.31251000  1
  Ti  Ti68  1  0.43863100  0.50000000  0.31085300  1
  Ti  Ti69  1  0.18913200  0.50000000  0.06131400  1
  O  O70  1  0.29441800  0.16685400  0.93138300  1
  O  O71  1  0.30634500  0.07503400  0.69365300  1
  O  O72  1  0.30617550  0.25822050  0.69362500  1
  O  O73  1  0.57024400  0.40633300  0.92972500  1
  O  O74  1  0.56872750  0.25790550  0.93131600  1
  O  O75  1  0.56821200  0.07524500  0.93132600  1
  O  O76  1  0.29441800  0.83314600  0.93138300  1
  O  O77  1  0.56857500  0.33318400  0.70551800  1
  O  O78  1  0.30670300  0.00000000  0.91881700  1
  O  O79  1  0.58108250  0.16673350  0.69356900  1
  O  O80  1  0.08116500  0.00000000  0.69327600  1
  O  O81  1  0.30641850  0.16673050  0.41895500  1
  O  O82  1  0.80611050  0.16687550  0.91878800  1
  O  O83  1  0.30634500  0.92496600  0.69365300  1
  O  O84  1  0.30617550  0.74177950  0.69362500  1
  O  O85  1  0.30638150  0.24183050  0.19380600  1
  O  O86  1  0.30669350  0.09169850  0.19395100  1
  O  O87  1  0.80606700  0.09168700  0.69328600  1
  O  O88  1  0.56866600  0.42472900  0.43178500  1
  O  O89  1  0.56821200  0.92475500  0.93132600  1
  O  O90  1  0.56872750  0.74209450  0.93131600  1
  O  O91  1  0.56866200  0.09157600  0.43134400  1
  O  O92  1  0.56869150  0.24182650  0.43127800  1
  O  O93  1  0.57024400  0.59366700  0.92972500  1
  O  O94  1  0.78922900  0.00000000  0.92977200  1
  O  O95  1  0.29445200  0.00000000  0.43174300  1
  O  O96  1  0.79398100  0.16664900  0.43139800  1
  O  O97  1  0.56824900  0.00000000  0.70552600  1
  O  O98  1  0.56857500  0.66681600  0.70551800  1
  O  O99  1  0.07022000  0.00000000  0.21078900  1
  O  O100  1  0.56864600  0.16668200  0.20608200  1
  O  O101  1  0.30641850  0.83326950  0.41895500  1
  O  O102  1  0.80611050  0.83312450  0.91878800  1
  O  O103  1  0.58117100  0.33312300  0.19389700  1
  O  O104  1  0.58108250  0.83326650  0.69356900  1
  O  O105  1  0.30669350  0.90830150  0.19395100  1
  O  O106  1  0.30638150  0.75816950  0.19380600  1
  O  O107  1  0.80606700  0.90831300  0.69328600  1
  O  O108  1  0.80606750  0.07518450  0.19394800  1
  O  O109  1  0.56866200  0.90842400  0.43134400  1
  O  O110  1  0.56869150  0.75817350  0.43127800  1
  O  O111  1  0.56866600  0.57527100  0.43178500  1
  O  O112  1  0.56864600  0.83331800  0.20608200  1
  O  O113  1  0.79398100  0.83335100  0.43139800  1
  O  O114  1  0.80627100  0.00000000  0.41902300  1
  O  O115  1  0.58101600  0.00000000  0.19375700  1
  O  O116  1  0.58117100  0.66687700  0.19389700  1
  O  O117  1  0.80606750  0.92481550  0.19394800  1
  O  O118  1  0.79441800  0.66685400  0.93138300  1
  O  O119  1  0.80634500  0.57503400  0.69365300  1
  O  O120  1  0.80617550  0.75822050  0.69362500  1
  O  O121  1  0.07024400  0.90633300  0.92972500  1
  O  O122  1  0.06872750  0.75790550  0.93131600  1
  O  O123  1  0.06821200  0.57524500  0.93132600  1
  O  O124  1  0.79441800  0.33314600  0.93138300  1
  O  O125  1  0.06857500  0.83318400  0.70551800  1
  O  O126  1  0.80670300  0.50000000  0.91881700  1
  O  O127  1  0.08108250  0.66673350  0.69356900  1
  O  O128  1  0.58116500  0.50000000  0.69327600  1
  O  O129  1  0.80641850  0.66673050  0.41895500  1
  O  O130  1  0.30611050  0.66687550  0.91878800  1
  O  O131  1  0.80634500  0.42496600  0.69365300  1
  O  O132  1  0.80617550  0.24177950  0.69362500  1
  O  O133  1  0.80638150  0.74183050  0.19380600  1
  O  O134  1  0.80669350  0.59169850  0.19395100  1
  O  O135  1  0.30606700  0.59168700  0.69328600  1
  O  O136  1  0.06866600  0.92472900  0.43178500  1
  O  O137  1  0.06821200  0.42475500  0.93132600  1
  O  O138  1  0.06872750  0.24209450  0.93131600  1
  O  O139  1  0.06866200  0.59157600  0.43134400  1
  O  O140  1  0.06869150  0.74182650  0.43127800  1
  O  O141  1  0.07024400  0.09366700  0.92972500  1
  O  O142  1  0.28922900  0.50000000  0.92977200  1
  O  O143  1  0.79445200  0.50000000  0.43174300  1
  O  O144  1  0.29398100  0.66664900  0.43139800  1
  O  O145  1  0.06824900  0.50000000  0.70552600  1
  O  O146  1  0.06857500  0.16681600  0.70551800  1
  O  O147  1  0.57022000  0.50000000  0.21078900  1
  O  O148  1  0.06864600  0.66668200  0.20608200  1
  O  O149  1  0.80641850  0.33326950  0.41895500  1
  O  O150  1  0.30611050  0.33312450  0.91878800  1
  O  O151  1  0.08117100  0.83312300  0.19389700  1
  O  O152  1  0.08108250  0.33326650  0.69356900  1
  O  O153  1  0.80669350  0.40830150  0.19395100  1
  O  O154  1  0.80638150  0.25816950  0.19380600  1
  O  O155  1  0.30606700  0.40831300  0.69328600  1
  O  O156  1  0.30606750  0.57518450  0.19394800  1
  O  O157  1  0.06866200  0.40842400  0.43134400  1
  O  O158  1  0.06869150  0.25817350  0.43127800  1
  O  O159  1  0.06866600  0.07527100  0.43178500  1
  O  O160  1  0.06864600  0.33331800  0.20608200  1
  O  O161  1  0.29398100  0.33335100  0.43139800  1
  O  O162  1  0.30627100  0.50000000  0.41902300  1
  O  O163  1  0.08101600  0.50000000  0.19375700  1
  O  O164  1  0.08117100  0.16687700  0.19389700  1
  O  O165  1  0.30606750  0.42481550  0.19394800  1
