# generated using pymatgen
data_Li5Mn7O15
_symmetry_space_group_name_H-M   'P 1'
_cell_length_a   10.13422000
_cell_length_b   6.07630400
_cell_length_c   10.01213039
_cell_angle_alpha   90.00000000
_cell_angle_beta   108.60428586
_cell_angle_gamma   90.00000000
_symmetry_Int_Tables_number   1
_chemical_formula_structural   Li5Mn7O15
_chemical_formula_sum   'Li10 Mn14 O30'
_cell_volume   584.31577829
_cell_formula_units_Z   2
loop_
 _symmetry_equiv_pos_site_id
 _symmetry_equiv_pos_as_xyz
  1  'x, y, z'
loop_
 _atom_site_type_symbol
 _atom_site_label
 _atom_site_symmetry_multiplicity
 _atom_site_fract_x
 _atom_site_fract_y
 _atom_site_fract_z
 _atom_site_occupancy
  Li  Li0  1  0.18399000  0.00000000  0.06790100  1
  Li  Li1  1  0.75762400  0.00000000  0.23584400  1
  Li  Li2  1  0.69743400  0.00000000  0.59187400  1
  Li  Li3  1  0.31784400  0.00000000  0.43476900  1
  Li  Li4  1  0.81360000  0.00000000  0.93485900  1
  Li  Li5  1  0.68399000  0.50000000  0.06790100  1
  Li  Li6  1  0.25762400  0.50000000  0.23584400  1
  Li  Li7  1  0.19743400  0.50000000  0.59187400  1
  Li  Li8  1  0.81784400  0.50000000  0.43476900  1
  Li  Li9  1  0.31360000  0.50000000  0.93485900  1
  Mn  Mn10  1  0.50793500  0.00000000  0.00799500  1
  Mn  Mn11  1  0.49135500  0.26173400  0.24029300  1
  Mn  Mn12  1  0.49135500  0.73826600  0.24029300  1
  Mn  Mn13  1  0.99927500  0.00000000  0.49450400  1
  Mn  Mn14  1  0.50194100  0.74773400  0.75076600  1
  Mn  Mn15  1  0.25289900  0.00000000  0.75162400  1
  Mn  Mn16  1  0.50194100  0.25226600  0.75076600  1
  Mn  Mn17  1  0.00793500  0.50000000  0.00799500  1
  Mn  Mn18  1  0.99135500  0.76173400  0.24029300  1
  Mn  Mn19  1  0.99135500  0.23826600  0.24029300  1
  Mn  Mn20  1  0.49927500  0.50000000  0.49450400  1
  Mn  Mn21  1  0.00194100  0.24773400  0.75076600  1
  Mn  Mn22  1  0.75289900  0.50000000  0.75162400  1
  Mn  Mn23  1  0.00194100  0.75226600  0.75076600  1
  O  O24  1  0.39842000  0.00000000  0.14066700  1
  O  O25  1  0.61139650  0.77915450  0.13070100  1
  O  O26  1  0.61139650  0.22084550  0.13070100  1
  O  O27  1  0.39819350  0.26950650  0.37963600  1
  O  O28  1  0.88155000  0.00000000  0.12906800  1
  O  O29  1  0.39819350  0.73049350  0.37963600  1
  O  O30  1  0.10856800  0.00000000  0.36683300  1
  O  O31  1  0.89326800  0.00000000  0.62569700  1
  O  O32  1  0.62348050  0.27998150  0.63422800  1
  O  O33  1  0.12472700  0.00000000  0.85934800  1
  O  O34  1  0.62348050  0.72001850  0.63422800  1
  O  O35  1  0.38257250  0.78190050  0.86859100  1
  O  O36  1  0.37917100  0.00000000  0.64231700  1
  O  O37  1  0.38257250  0.21809950  0.86859100  1
  O  O38  1  0.60924800  0.00000000  0.87431000  1
  O  O39  1  0.89842000  0.50000000  0.14066700  1
  O  O40  1  0.11139650  0.27915450  0.13070100  1
  O  O41  1  0.11139650  0.72084550  0.13070100  1
  O  O42  1  0.89819350  0.76950650  0.37963600  1
  O  O43  1  0.38155000  0.50000000  0.12906800  1
  O  O44  1  0.89819350  0.23049350  0.37963600  1
  O  O45  1  0.60856800  0.50000000  0.36683300  1
  O  O46  1  0.39326800  0.50000000  0.62569700  1
  O  O47  1  0.12348050  0.77998150  0.63422800  1
  O  O48  1  0.62472700  0.50000000  0.85934800  1
  O  O49  1  0.12348050  0.22001850  0.63422800  1
  O  O50  1  0.88257250  0.28190050  0.86859100  1
  O  O51  1  0.87917100  0.50000000  0.64231700  1
  O  O52  1  0.88257250  0.71809950  0.86859100  1
  O  O53  1  0.10924800  0.50000000  0.87431000  1
