# generated using pymatgen
data_NaNiPO4
_symmetry_space_group_name_H-M   'P 1'
_cell_length_a   5.35627300
_cell_length_b   8.42297909
_cell_length_c   6.76212407
_cell_angle_alpha   90.00000000
_cell_angle_beta   90.00000000
_cell_angle_gamma   90.00000000
_symmetry_Int_Tables_number   1
_chemical_formula_structural   NaNiPO4
_chemical_formula_sum   'Na4 Ni4 P4 O16'
_cell_volume   305.07847121
_cell_formula_units_Z   4
loop_
 _symmetry_equiv_pos_site_id
 _symmetry_equiv_pos_as_xyz
  1  'x, y, z'
loop_
 _atom_site_type_symbol
 _atom_site_label
 _atom_site_symmetry_multiplicity
 _atom_site_fract_x
 _atom_site_fract_y
 _atom_site_fract_z
 _atom_site_occupancy
  Na  Na0  1  0.00000000  0.31335850  0.25000000  1
  Na  Na1  1  0.00000000  0.68664150  0.75000000  1
  Na  Na2  1  0.50000000  0.81335850  0.25000000  1
  Na  Na3  1  0.50000000  0.18664150  0.75000000  1
  Ni  Ni4  1  0.50000000  0.50000000  0.00000000  1
  Ni  Ni5  1  0.50000000  0.50000000  0.50000000  1
  Ni  Ni6  1  0.00000000  0.00000000  0.00000000  1
  Ni  Ni7  1  0.00000000  0.00000000  0.50000000  1
  P  P8  1  0.00000000  0.33687600  0.75000000  1
  P  P9  1  0.00000000  0.66312400  0.25000000  1
  P  P10  1  0.50000000  0.83687600  0.75000000  1
  P  P11  1  0.50000000  0.16312400  0.25000000  1
  O  O12  1  0.76174650  0.44795100  0.75000000  1
  O  O13  1  0.76174650  0.55204900  0.25000000  1
  O  O14  1  0.23825350  0.55204900  0.25000000  1
  O  O15  1  0.23825350  0.44795100  0.75000000  1
  O  O16  1  0.00000000  0.23202300  0.93506600  1
  O  O17  1  0.00000000  0.76797700  0.06493400  1
  O  O18  1  0.00000000  0.23202300  0.56493400  1
  O  O19  1  0.00000000  0.76797700  0.43506600  1
  O  O20  1  0.26174650  0.94795100  0.75000000  1
  O  O21  1  0.26174650  0.05204900  0.25000000  1
  O  O22  1  0.73825350  0.05204900  0.25000000  1
  O  O23  1  0.73825350  0.94795100  0.75000000  1
  O  O24  1  0.50000000  0.73202300  0.93506600  1
  O  O25  1  0.50000000  0.26797700  0.06493400  1
  O  O26  1  0.50000000  0.73202300  0.56493400  1
  O  O27  1  0.50000000  0.26797700  0.43506600  1
