# generated using pymatgen
data_La8Cu3O16
_symmetry_space_group_name_H-M   'P 1'
_cell_length_a   7.10727376
_cell_length_b   7.54050362
_cell_length_c   8.42140099
_cell_angle_alpha   116.52928928
_cell_angle_beta   96.77287682
_cell_angle_gamma   105.50635310
_symmetry_Int_Tables_number   1
_chemical_formula_structural   La8Cu3O16
_chemical_formula_sum   'La8 Cu3 O16'
_cell_volume   374.06832376
_cell_formula_units_Z   1
loop_
 _symmetry_equiv_pos_site_id
 _symmetry_equiv_pos_as_xyz
  1  'x, y, z'
loop_
 _atom_site_type_symbol
 _atom_site_label
 _atom_site_symmetry_multiplicity
 _atom_site_fract_x
 _atom_site_fract_y
 _atom_site_fract_z
 _atom_site_occupancy
  La  La0  1  0.26981675  0.16322066  0.32332418  1
  La  La1  1  0.72369814  0.85260468  0.67265010  1
  La  La2  1  0.27481803  0.64685904  0.32969209  1
  La  La3  1  0.27933311  0.40530866  0.81099870  1
  La  La4  1  0.27780513  0.92290620  0.81385456  1
  La  La5  1  0.72834761  0.33707323  0.67852077  1
  La  La6  1  0.72116880  0.09555282  0.18995125  1
  La  La7  1  0.72221300  0.57828140  0.18573885  1
  Cu  Cu8  1  0.00100870  0.75001622  0.50001478  1
  Cu  Cu9  1  0.00095857  0.49936134  0.99991326  1
  Cu  Cu10  1  0.99637724  0.99894067  0.99745573  1
  O  O11  1  0.99436262  0.87470541  0.24811654  1
  O  O12  1  0.63223087  0.70520575  0.41081760  1
  O  O13  1  0.00108468  0.37867011  0.24488555  1
  O  O14  1  0.00390331  0.99367030  0.50103403  1
  O  O15  1  0.62423056  0.20138564  0.39992115  1
  O  O16  1  0.63716243  0.44974119  0.90745535  1
  O  O17  1  0.63282578  0.95340479  0.89773429  1
  O  O18  1  0.37339167  0.29843278  0.59405257  1
  O  O19  1  0.99983052  0.12286761  0.75492973  1
  O  O20  1  0.99593772  0.50706581  0.49901161  1
  O  O21  1  0.99717165  0.74847174  0.00061229  1
  O  O22  1  0.99781847  0.24811800  0.00082778  1
  O  O23  1  0.36545521  0.79373994  0.58315021  1
  O  O24  1  0.36692829  0.53934127  0.09104084  1
  O  O25  1  0.36483821  0.04435764  0.08309718  1
  O  O26  1  0.00603792  0.62697010  0.75102603  1
