# generated using pymatgen
data_LiTiCoO4
_symmetry_space_group_name_H-M   'P 1'
_cell_length_a   5.97427900
_cell_length_b   5.97427900
_cell_length_c   8.17867201
_cell_angle_alpha   90.00000000
_cell_angle_beta   90.00000000
_cell_angle_gamma   90.00000000
_symmetry_Int_Tables_number   1
_chemical_formula_structural   LiTiCoO4
_chemical_formula_sum   'Li4 Ti4 Co4 O16'
_cell_volume   291.91323968
_cell_formula_units_Z   4
loop_
 _symmetry_equiv_pos_site_id
 _symmetry_equiv_pos_as_xyz
  1  'x, y, z'
loop_
 _atom_site_type_symbol
 _atom_site_label
 _atom_site_symmetry_multiplicity
 _atom_site_fract_x
 _atom_site_fract_y
 _atom_site_fract_z
 _atom_site_occupancy
  Li  Li0  1  0.50000000  0.72752800  0.00000000  1
  Li  Li1  1  0.50000000  0.27247200  0.50000000  1
  Li  Li2  1  0.72752800  0.50000000  0.25000000  1
  Li  Li3  1  0.27247200  0.50000000  0.75000000  1
  Ti  Ti4  1  0.72130200  0.00000000  0.25000000  1
  Ti  Ti5  1  0.00000000  0.72130200  0.00000000  1
  Ti  Ti6  1  0.00000000  0.27869800  0.50000000  1
  Ti  Ti7  1  0.27869800  0.00000000  0.75000000  1
  Co  Co8  1  0.24235550  0.75764450  0.37500000  1
  Co  Co9  1  0.24235550  0.24235550  0.12500000  1
  Co  Co10  1  0.75764450  0.75764450  0.62500000  1
  Co  Co11  1  0.75764450  0.24235550  0.87500000  1
  O  O12  1  0.51168900  0.76740600  0.25953000  1
  O  O13  1  0.51168900  0.23259400  0.24047000  1
  O  O14  1  0.76740600  0.51168900  0.99047000  1
  O  O15  1  0.76740600  0.48831100  0.50953000  1
  O  O16  1  0.23259400  0.51168900  0.00953000  1
  O  O17  1  0.23259400  0.48831100  0.49047000  1
  O  O18  1  0.48831100  0.76740600  0.74047000  1
  O  O19  1  0.48831100  0.23259400  0.75953000  1
  O  O20  1  0.76434100  0.98347500  0.01043400  1
  O  O21  1  0.76434100  0.01652500  0.48956600  1
  O  O22  1  0.98347500  0.76434100  0.23956600  1
  O  O23  1  0.98347500  0.23565900  0.26043400  1
  O  O24  1  0.01652500  0.76434100  0.76043400  1
  O  O25  1  0.01652500  0.23565900  0.73956600  1
  O  O26  1  0.23565900  0.01652500  0.51043400  1
  O  O27  1  0.23565900  0.98347500  0.98956600  1
