# generated using pymatgen
data_CaLaMnMoO6
_symmetry_space_group_name_H-M   'P 1'
_cell_length_a   5.60984294
_cell_length_b   5.77462000
_cell_length_c   9.77213395
_cell_angle_alpha   90.00000000
_cell_angle_beta   124.31072380
_cell_angle_gamma   90.00000000
_symmetry_Int_Tables_number   1
_chemical_formula_structural   CaLaMnMoO6
_chemical_formula_sum   'Ca2 La2 Mn2 Mo2 O12'
_cell_volume   261.48079091
_cell_formula_units_Z   2
loop_
 _symmetry_equiv_pos_site_id
 _symmetry_equiv_pos_as_xyz
  1  'x, y, z'
loop_
 _atom_site_type_symbol
 _atom_site_label
 _atom_site_symmetry_multiplicity
 _atom_site_fract_x
 _atom_site_fract_y
 _atom_site_fract_z
 _atom_site_occupancy
  Ca  Ca0  1  0.76578700  0.69461350  0.25447900  1
  Ca  Ca1  1  0.76578700  0.30538650  0.75447900  1
  La  La2  1  0.23448300  0.19712050  0.24360600  1
  La  La3  1  0.23448300  0.80287950  0.74360600  1
  Mn  Mn4  1  0.99954800  0.74761050  0.99987200  1
  Mn  Mn5  1  0.99954800  0.25238950  0.49987200  1
  Mo  Mo6  1  0.49834600  0.25206350  0.99892500  1
  Mo  Mo7  1  0.49834600  0.74793650  0.49892500  1
  O  O8  1  0.64437700  0.71013350  0.74287700  1
  O  O9  1  0.64437700  0.28986650  0.24287700  1
  O  O10  1  0.26849100  0.46833450  0.44778300  1
  O  O11  1  0.26849100  0.53166550  0.94778300  1
  O  O12  1  0.84519100  0.44272250  0.05127200  1
  O  O13  1  0.84519100  0.55727750  0.55127200  1
  O  O14  1  0.15219400  0.94014650  0.44844000  1
  O  O15  1  0.15219400  0.05985350  0.94844000  1
  O  O16  1  0.73026200  0.97016450  0.05483000  1
  O  O17  1  0.73026200  0.02983550  0.55483000  1
  O  O18  1  0.36138000  0.21448150  0.75794500  1
  O  O19  1  0.36138000  0.78551850  0.25794500  1
