# generated using pymatgen
data_Yb2TiO5
_symmetry_space_group_name_H-M   'P 1'
_cell_length_a   4.07527200
_cell_length_b   11.40134600
_cell_length_c   10.17403700
_cell_angle_alpha   90.00000000
_cell_angle_beta   90.00000000
_cell_angle_gamma   90.00000000
_symmetry_Int_Tables_number   1
_chemical_formula_structural   Yb2TiO5
_chemical_formula_sum   'Yb8 Ti4 O20'
_cell_volume   472.72224430
_cell_formula_units_Z   4
loop_
 _symmetry_equiv_pos_site_id
 _symmetry_equiv_pos_as_xyz
  1  'x, y, z'
loop_
 _atom_site_type_symbol
 _atom_site_label
 _atom_site_symmetry_multiplicity
 _atom_site_fract_x
 _atom_site_fract_y
 _atom_site_fract_z
 _atom_site_occupancy
  Yb  Yb0  1  0.50000000  0.35925800  0.43213500  1
  Yb  Yb1  1  0.50000000  0.35925800  0.06786500  1
  Yb  Yb2  1  0.00000000  0.14074200  0.56786500  1
  Yb  Yb3  1  0.00000000  0.14074200  0.93213500  1
  Yb  Yb4  1  0.00000000  0.85925800  0.43213500  1
  Yb  Yb5  1  0.00000000  0.85925800  0.06786500  1
  Yb  Yb6  1  0.50000000  0.64074200  0.56786500  1
  Yb  Yb7  1  0.50000000  0.64074200  0.93213500  1
  Ti  Ti8  1  0.50000000  0.30592900  0.75000000  1
  Ti  Ti9  1  0.00000000  0.19407100  0.25000000  1
  Ti  Ti10  1  0.00000000  0.80592900  0.75000000  1
  Ti  Ti11  1  0.50000000  0.69407100  0.25000000  1
  O  O12  1  0.50000000  0.44884100  0.85895100  1
  O  O13  1  0.50000000  0.44884100  0.64104900  1
  O  O14  1  0.00000000  0.28565400  0.40667200  1
  O  O15  1  0.00000000  0.28565400  0.09332800  1
  O  O16  1  0.50000000  0.23172800  0.25000000  1
  O  O17  1  0.00000000  0.26827200  0.75000000  1
  O  O18  1  0.50000000  0.21434600  0.59332800  1
  O  O19  1  0.50000000  0.21434600  0.90667200  1
  O  O20  1  0.00000000  0.05115900  0.14104900  1
  O  O21  1  0.00000000  0.05115900  0.35895100  1
  O  O22  1  0.00000000  0.94884100  0.85895100  1
  O  O23  1  0.00000000  0.94884100  0.64104900  1
  O  O24  1  0.50000000  0.78565400  0.40667200  1
  O  O25  1  0.50000000  0.78565400  0.09332800  1
  O  O26  1  0.00000000  0.73172800  0.25000000  1
  O  O27  1  0.50000000  0.76827200  0.75000000  1
  O  O28  1  0.00000000  0.71434600  0.59332800  1
  O  O29  1  0.00000000  0.71434600  0.90667200  1
  O  O30  1  0.50000000  0.55115900  0.14104900  1
  O  O31  1  0.50000000  0.55115900  0.35895100  1
