# generated using pymatgen
data_V2(OF)3
_symmetry_space_group_name_H-M   'P 1'
_cell_length_a   8.81765200
_cell_length_b   5.33759600
_cell_length_c   9.07996231
_cell_angle_alpha   90.00000000
_cell_angle_beta   104.67323782
_cell_angle_gamma   90.00000000
_symmetry_Int_Tables_number   1
_chemical_formula_structural   V2(OF)3
_chemical_formula_sum   'V8 O12 F12'
_cell_volume   413.41152151
_cell_formula_units_Z   4
loop_
 _symmetry_equiv_pos_site_id
 _symmetry_equiv_pos_as_xyz
  1  'x, y, z'
loop_
 _atom_site_type_symbol
 _atom_site_label
 _atom_site_symmetry_multiplicity
 _atom_site_fract_x
 _atom_site_fract_y
 _atom_site_fract_z
 _atom_site_occupancy
  V  V0  1  0.37510350  0.62547450  0.62688000  1
  V  V1  1  0.62489650  0.62547450  0.37312000  1
  V  V2  1  0.39619900  0.15316500  0.13707800  1
  V  V3  1  0.60380100  0.15316500  0.86292200  1
  V  V4  1  0.87510350  0.12547450  0.62688000  1
  V  V5  1  0.12489650  0.12547450  0.37312000  1
  V  V6  1  0.89619900  0.65316500  0.13707800  1
  V  V7  1  0.10380100  0.65316500  0.86292200  1
  O  O8  1  0.50000000  0.55490200  0.50000000  1
  O  O9  1  0.50000000  0.04456200  0.00000000  1
  O  O10  1  0.24588000  0.18234000  0.24491500  1
  O  O11  1  0.75412000  0.18234000  0.75508500  1
  O  O12  1  0.53563200  0.32853400  0.24664300  1
  O  O13  1  0.46436800  0.32853400  0.75335700  1
  O  O14  1  0.00000000  0.05490200  0.50000000  1
  O  O15  1  0.00000000  0.54456200  0.00000000  1
  O  O16  1  0.74588000  0.68234000  0.24491500  1
  O  O17  1  0.25412000  0.68234000  0.75508500  1
  O  O18  1  0.03563200  0.82853400  0.24664300  1
  O  O19  1  0.96436800  0.82853400  0.75335700  1
  F  F20  1  0.45218950  0.83516350  0.24418200  1
  F  F21  1  0.54781050  0.83516350  0.75581800  1
  F  F22  1  0.29576650  0.92651450  0.50430000  1
  F  F23  1  0.20470700  0.89907600  0.99634900  1
  F  F24  1  0.70423350  0.92651450  0.49570000  1
  F  F25  1  0.79529300  0.89907600  0.00365100  1
  F  F26  1  0.95218950  0.33516350  0.24418200  1
  F  F27  1  0.04781050  0.33516350  0.75581800  1
  F  F28  1  0.79576650  0.42651450  0.50430000  1
  F  F29  1  0.70470700  0.39907600  0.99634900  1
  F  F30  1  0.20423350  0.42651450  0.49570000  1
  F  F31  1  0.29529300  0.39907600  0.00365100  1
