# generated using pymatgen
data_Na5(WO3)7
_symmetry_space_group_name_H-M   'P 1'
_cell_length_a   22.93788000
_cell_length_b   5.64452400
_cell_length_c   6.79838372
_cell_angle_alpha   90.00000000
_cell_angle_beta   101.31713719
_cell_angle_gamma   90.00000000
_symmetry_Int_Tables_number   1
_chemical_formula_structural   Na5(WO3)7
_chemical_formula_sum   'Na10 W14 O42'
_cell_volume   863.09515564
_cell_formula_units_Z   2
loop_
 _symmetry_equiv_pos_site_id
 _symmetry_equiv_pos_as_xyz
  1  'x, y, z'
loop_
 _atom_site_type_symbol
 _atom_site_label
 _atom_site_symmetry_multiplicity
 _atom_site_fract_x
 _atom_site_fract_y
 _atom_site_fract_z
 _atom_site_occupancy
  Na  Na0  1  0.21463800  0.50000000  0.14559100  1
  Na  Na1  1  0.42773000  0.00000000  0.28642000  1
  Na  Na2  1  0.00000000  0.00000000  0.00000000  1
  Na  Na3  1  0.28536200  0.00000000  0.85440900  1
  Na  Na4  1  0.07227000  0.50000000  0.71358000  1
  Na  Na5  1  0.71463800  0.00000000  0.14559100  1
  Na  Na6  1  0.92773000  0.50000000  0.28642000  1
  Na  Na7  1  0.50000000  0.50000000  0.00000000  1
  Na  Na8  1  0.78536200  0.50000000  0.85440900  1
  Na  Na9  1  0.57227000  0.00000000  0.71358000  1
  W  W10  1  0.35592000  0.50000000  0.07240200  1
  W  W11  1  0.28566100  0.00000000  0.36059600  1
  W  W12  1  0.21433900  0.50000000  0.63940400  1
  W  W13  1  0.00000000  0.00000000  0.50000000  1
  W  W14  1  0.42733300  0.00000000  0.78461400  1
  W  W15  1  0.07266700  0.50000000  0.21538600  1
  W  W16  1  0.14408000  0.00000000  0.92759800  1
  W  W17  1  0.85592000  0.00000000  0.07240200  1
  W  W18  1  0.78566100  0.50000000  0.36059600  1
  W  W19  1  0.71433900  0.00000000  0.63940400  1
  W  W20  1  0.50000000  0.50000000  0.50000000  1
  W  W21  1  0.92733300  0.50000000  0.78461400  1
  W  W22  1  0.57266700  0.00000000  0.21538600  1
  W  W23  1  0.64408000  0.50000000  0.92759800  1
  O  O24  1  0.32049200  0.24422300  0.21400600  1
  O  O25  1  0.17950800  0.25577700  0.78599400  1
  O  O26  1  0.28709300  0.50000000  0.86455200  1
  O  O27  1  0.21290700  0.00000000  0.13544800  1
  O  O28  1  0.25000000  0.25000000  0.50000000  1
  O  O29  1  0.17950800  0.74422300  0.78599400  1
  O  O30  1  0.32049200  0.75577700  0.21400600  1
  O  O31  1  0.42930700  0.50000000  0.28349100  1
  O  O32  1  0.03473150  0.25796750  0.35366600  1
  O  O33  1  0.25000000  0.75000000  0.50000000  1
  O  O34  1  0.39491550  0.75929250  0.93321000  1
  O  O35  1  0.46526850  0.75796750  0.64633400  1
  O  O36  1  0.03473150  0.74203250  0.35366600  1
  O  O37  1  0.07069300  0.00000000  0.71650900  1
  O  O38  1  0.14121300  0.50000000  0.42144900  1
  O  O39  1  0.00000000  0.50000000  0.00000000  1
  O  O40  1  0.39491550  0.24070750  0.93321000  1
  O  O41  1  0.10508450  0.25929250  0.06679000  1
  O  O42  1  0.35878700  0.00000000  0.57855100  1
  O  O43  1  0.46526850  0.24203250  0.64633400  1
  O  O44  1  0.10508450  0.74070750  0.06679000  1
  O  O45  1  0.82049200  0.74422300  0.21400600  1
  O  O46  1  0.67950800  0.75577700  0.78599400  1
  O  O47  1  0.78709300  0.00000000  0.86455200  1
  O  O48  1  0.71290700  0.50000000  0.13544800  1
  O  O49  1  0.75000000  0.75000000  0.50000000  1
  O  O50  1  0.67950800  0.24422300  0.78599400  1
  O  O51  1  0.82049200  0.25577700  0.21400600  1
  O  O52  1  0.92930700  0.00000000  0.28349100  1
  O  O53  1  0.53473150  0.75796750  0.35366600  1
  O  O54  1  0.75000000  0.25000000  0.50000000  1
  O  O55  1  0.89491550  0.25929250  0.93321000  1
  O  O56  1  0.96526850  0.25796750  0.64633400  1
  O  O57  1  0.53473150  0.24203250  0.35366600  1
  O  O58  1  0.57069300  0.50000000  0.71650900  1
  O  O59  1  0.64121300  0.00000000  0.42144900  1
  O  O60  1  0.50000000  0.00000000  0.00000000  1
  O  O61  1  0.89491550  0.74070750  0.93321000  1
  O  O62  1  0.60508450  0.75929250  0.06679000  1
  O  O63  1  0.85878700  0.50000000  0.57855100  1
  O  O64  1  0.96526850  0.74203250  0.64633400  1
  O  O65  1  0.60508450  0.24070750  0.06679000  1
