# generated using pymatgen
data_KLi(WO3)3
_symmetry_space_group_name_H-M   'P 1'
_cell_length_a   7.58282493
_cell_length_b   13.23781666
_cell_length_c   7.91890251
_cell_angle_alpha   90.00000000
_cell_angle_beta   90.15742741
_cell_angle_gamma   90.00000000
_symmetry_Int_Tables_number   1
_chemical_formula_structural   KLi(WO3)3
_chemical_formula_sum   'K4 Li4 W12 O36'
_cell_volume   794.89679900
_cell_formula_units_Z   4
loop_
 _symmetry_equiv_pos_site_id
 _symmetry_equiv_pos_as_xyz
  1  'x, y, z'
loop_
 _atom_site_type_symbol
 _atom_site_label
 _atom_site_symmetry_multiplicity
 _atom_site_fract_x
 _atom_site_fract_y
 _atom_site_fract_z
 _atom_site_occupancy
  K  K0  1  0.49362600  0.50233800  0.26917300  1
  K  K1  1  0.99362600  0.99766200  0.76917300  1
  K  K2  1  0.99362600  0.00233800  0.26917300  1
  K  K3  1  0.49362600  0.49766200  0.76917300  1
  Li  Li4  1  0.44279400  0.85073100  0.25038300  1
  Li  Li5  1  0.94279400  0.64926900  0.75038300  1
  Li  Li6  1  0.94279400  0.35073100  0.25038300  1
  Li  Li7  1  0.44279400  0.14926900  0.75038300  1
  W  W8  1  0.74547250  0.75131050  0.49817300  1
  W  W9  1  0.74635600  0.75185900  0.00211900  1
  W  W10  1  0.24635600  0.74814100  0.50211900  1
  W  W11  1  0.24547250  0.74868950  0.99817300  1
  W  W12  1  0.50061650  0.00021750  0.00013000  1
  W  W13  1  0.50061650  0.99978250  0.50013000  1
  W  W14  1  0.24547250  0.25131050  0.49817300  1
  W  W15  1  0.24635600  0.25185900  0.00211900  1
  W  W16  1  0.74635600  0.24814100  0.50211900  1
  W  W17  1  0.74547250  0.24868950  0.99817300  1
  W  W18  1  0.00061650  0.50021750  0.00013000  1
  W  W19  1  0.00061650  0.49978250  0.50013000  1
  O  O20  1  0.74889400  0.75151800  0.74991600  1
  O  O21  1  0.68347150  0.89633650  0.00614200  1
  O  O22  1  0.68174000  0.89811400  0.49270900  1
  O  O23  1  0.49681900  0.71181100  0.49577500  1
  O  O24  1  0.49799150  0.99890750  0.74590000  1
  O  O25  1  0.49376400  0.71211200  0.00424500  1
  O  O26  1  0.31705150  0.89152750  0.01329200  1
  O  O27  1  0.32143500  0.89590000  0.48650100  1
  O  O28  1  0.24713550  0.75177650  0.75441400  1
  O  O29  1  0.24889400  0.74848200  0.24991600  1
  O  O30  1  0.18174000  0.60188600  0.99270900  1
  O  O31  1  0.18347150  0.60366350  0.50614200  1
  O  O32  1  0.99376400  0.78788800  0.50424500  1
  O  O33  1  0.99799150  0.50109250  0.24590000  1
  O  O34  1  0.99681900  0.78818900  0.99577500  1
  O  O35  1  0.82143500  0.60410000  0.98650100  1
  O  O36  1  0.81705150  0.60847250  0.51329200  1
  O  O37  1  0.74713550  0.74822350  0.25441400  1
  O  O38  1  0.24889400  0.25151800  0.74991600  1
  O  O39  1  0.18347150  0.39633650  0.00614200  1
  O  O40  1  0.18174000  0.39811400  0.49270900  1
  O  O41  1  0.99681900  0.21181100  0.49577500  1
  O  O42  1  0.99799150  0.49890750  0.74590000  1
  O  O43  1  0.99376400  0.21211200  0.00424500  1
  O  O44  1  0.81705150  0.39152750  0.01329200  1
  O  O45  1  0.82143500  0.39590000  0.48650100  1
  O  O46  1  0.74713550  0.25177650  0.75441400  1
  O  O47  1  0.74889400  0.24848200  0.24991600  1
  O  O48  1  0.68174000  0.10188600  0.99270900  1
  O  O49  1  0.68347150  0.10366350  0.50614200  1
  O  O50  1  0.49376400  0.28788800  0.50424500  1
  O  O51  1  0.49799150  0.00109250  0.24590000  1
  O  O52  1  0.49681900  0.28818900  0.99577500  1
  O  O53  1  0.32143500  0.10410000  0.98650100  1
  O  O54  1  0.31705150  0.10847250  0.51329200  1
  O  O55  1  0.24713550  0.24822350  0.25441400  1
