# generated using pymatgen
data_Li6Mn5Ni3O16
_symmetry_space_group_name_H-M   'P 1'
_cell_length_a   10.10394200
_cell_length_b   5.78585600
_cell_length_c   9.43879464
_cell_angle_alpha   90.00000000
_cell_angle_beta   91.28443751
_cell_angle_gamma   90.00000000
_symmetry_Int_Tables_number   1
_chemical_formula_structural   Li6Mn5Ni3O16
_chemical_formula_sum   'Li12 Mn10 Ni6 O32'
_cell_volume   551.65284926
_cell_formula_units_Z   2
loop_
 _symmetry_equiv_pos_site_id
 _symmetry_equiv_pos_as_xyz
  1  'x, y, z'
loop_
 _atom_site_type_symbol
 _atom_site_label
 _atom_site_symmetry_multiplicity
 _atom_site_fract_x
 _atom_site_fract_y
 _atom_site_fract_z
 _atom_site_occupancy
  Li  Li0  1  0.82566800  0.00000000  0.54946500  1
  Li  Li1  1  0.59074300  0.24305900  0.54688100  1
  Li  Li2  1  0.59074300  0.75694100  0.54688100  1
  Li  Li3  1  0.91888000  0.74574900  0.05983100  1
  Li  Li4  1  0.91888000  0.25425100  0.05983100  1
  Li  Li5  1  0.66430200  0.50000000  0.05926600  1
  Li  Li6  1  0.32566800  0.50000000  0.54946500  1
  Li  Li7  1  0.09074300  0.74305900  0.54688100  1
  Li  Li8  1  0.09074300  0.25694100  0.54688100  1
  Li  Li9  1  0.41888000  0.24574900  0.05983100  1
  Li  Li10  1  0.41888000  0.75425100  0.05983100  1
  Li  Li11  1  0.16430200  0.00000000  0.05926600  1
  Mn  Mn12  1  0.82790300  0.00000000  0.28528000  1
  Mn  Mn13  1  0.65991700  0.00000000  0.01521800  1
  Mn  Mn14  1  0.91599800  0.74761000  0.78541100  1
  Mn  Mn15  1  0.91599800  0.25239000  0.78541100  1
  Mn  Mn16  1  0.82942600  0.50000000  0.51034800  1
  Mn  Mn17  1  0.32790300  0.50000000  0.28528000  1
  Mn  Mn18  1  0.15991700  0.50000000  0.01521800  1
  Mn  Mn19  1  0.41599800  0.24761000  0.78541100  1
  Mn  Mn20  1  0.41599800  0.75239000  0.78541100  1
  Mn  Mn21  1  0.32942600  0.00000000  0.51034800  1
  Ni  Ni22  1  0.58360700  0.24868500  0.28763400  1
  Ni  Ni23  1  0.58360700  0.75131500  0.28763400  1
  Ni  Ni24  1  0.66817100  0.50000000  0.78711400  1
  Ni  Ni25  1  0.08360700  0.74868500  0.28763400  1
  Ni  Ni26  1  0.08360700  0.25131500  0.28763400  1
  Ni  Ni27  1  0.16817100  0.00000000  0.78711400  1
  O  O28  1  0.83806600  0.00000000  0.89683100  1
  O  O29  1  0.74617850  0.21879150  0.14807200  1
  O  O30  1  0.57636950  0.25169950  0.90773900  1
  O  O31  1  0.67468700  0.00000000  0.40322600  1
  O  O32  1  0.74617850  0.78120850  0.14807200  1
  O  O33  1  0.52131900  0.00000000  0.14426900  1
  O  O34  1  0.90988900  0.75425200  0.40665100  1
  O  O35  1  0.57636950  0.74830050  0.90773900  1
  O  O36  1  0.98518400  0.50000000  0.66173900  1
  O  O37  1  0.90988900  0.24574800  0.40665100  1
  O  O38  1  0.84346600  0.50000000  0.89668700  1
  O  O39  1  0.76659100  0.72758700  0.65418400  1
  O  O40  1  0.76659100  0.27241300  0.65418400  1
  O  O41  1  0.66463500  0.50000000  0.41927700  1
  O  O42  1  0.99156000  0.00000000  0.67895000  1
  O  O43  1  0.98862600  0.00000000  0.17949200  1
  O  O44  1  0.33806600  0.50000000  0.89683100  1
  O  O45  1  0.24617850  0.71879150  0.14807200  1
  O  O46  1  0.07636950  0.75169950  0.90773900  1
  O  O47  1  0.17468700  0.50000000  0.40322600  1
  O  O48  1  0.24617850  0.28120850  0.14807200  1
  O  O49  1  0.02131900  0.50000000  0.14426900  1
  O  O50  1  0.40988900  0.25425200  0.40665100  1
  O  O51  1  0.07636950  0.24830050  0.90773900  1
  O  O52  1  0.48518400  0.00000000  0.66173900  1
  O  O53  1  0.40988900  0.74574800  0.40665100  1
  O  O54  1  0.34346600  0.00000000  0.89668700  1
  O  O55  1  0.26659100  0.22758700  0.65418400  1
  O  O56  1  0.26659100  0.77241300  0.65418400  1
  O  O57  1  0.16463500  0.00000000  0.41927700  1
  O  O58  1  0.49156000  0.50000000  0.67895000  1
  O  O59  1  0.48862600  0.50000000  0.17949200  1
