# generated using pymatgen
data_Li4Cr3Ni2Sn3O16
_symmetry_space_group_name_H-M   'P 1'
_cell_length_a   10.48713200
_cell_length_b   6.05196400
_cell_length_c   9.72231471
_cell_angle_alpha   90.00000000
_cell_angle_beta   90.90385180
_cell_angle_gamma   90.00000000
_symmetry_Int_Tables_number   1
_chemical_formula_structural   Li4Cr3Ni2Sn3O16
_chemical_formula_sum   'Li8 Cr6 Ni4 Sn6 O32'
_cell_volume   616.97661644
_cell_formula_units_Z   2
loop_
 _symmetry_equiv_pos_site_id
 _symmetry_equiv_pos_as_xyz
  1  'x, y, z'
loop_
 _atom_site_type_symbol
 _atom_site_label
 _atom_site_symmetry_multiplicity
 _atom_site_fract_x
 _atom_site_fract_y
 _atom_site_fract_z
 _atom_site_occupancy
  Li  Li0  1  0.67230900  0.00000000  0.11222400  1
  Li  Li1  1  0.98886700  0.00000000  0.00520100  1
  Li  Li2  1  0.98934700  0.00000000  0.49846800  1
  Li  Li3  1  0.83658100  0.50000000  0.60496600  1
  Li  Li4  1  0.17230900  0.50000000  0.11222400  1
  Li  Li5  1  0.48886700  0.50000000  0.00520100  1
  Li  Li6  1  0.48934700  0.50000000  0.49846800  1
  Li  Li7  1  0.33658100  0.00000000  0.60496600  1
  Cr  Cr8  1  0.83295800  0.00000000  0.78733500  1
  Cr  Cr9  1  0.91778100  0.25325900  0.28643100  1
  Cr  Cr10  1  0.91778100  0.74674100  0.28643100  1
  Cr  Cr11  1  0.33295800  0.50000000  0.78733500  1
  Cr  Cr12  1  0.41778100  0.75325900  0.28643100  1
  Cr  Cr13  1  0.41778100  0.24674100  0.28643100  1
  Ni  Ni14  1  0.66802100  0.00000000  0.51038500  1
  Ni  Ni15  1  0.83268900  0.50000000  0.01436400  1
  Ni  Ni16  1  0.16802100  0.50000000  0.51038500  1
  Ni  Ni17  1  0.33268900  0.00000000  0.01436400  1
  Sn  Sn18  1  0.58655500  0.75338200  0.78418300  1
  Sn  Sn19  1  0.58655500  0.24661800  0.78418300  1
  Sn  Sn20  1  0.67147400  0.50000000  0.28488100  1
  Sn  Sn21  1  0.08655500  0.25338200  0.78418300  1
  Sn  Sn22  1  0.08655500  0.74661800  0.78418300  1
  Sn  Sn23  1  0.17147400  0.00000000  0.28488100  1
  O  O24  1  0.57218150  0.74337950  0.39715800  1
  O  O25  1  0.51740200  0.00000000  0.65704800  1
  O  O26  1  0.67373100  0.00000000  0.90284200  1
  O  O27  1  0.99284300  0.00000000  0.68134900  1
  O  O28  1  0.99509800  0.00000000  0.18715500  1
  O  O29  1  0.57218150  0.25662050  0.39715800  1
  O  O30  1  0.74956450  0.78453050  0.66537500  1
  O  O31  1  0.74956450  0.21546950  0.66537500  1
  O  O32  1  0.65681500  0.50000000  0.90720100  1
  O  O33  1  0.84012200  0.00000000  0.38273300  1
  O  O34  1  0.76788100  0.27172500  0.16522900  1
  O  O35  1  0.76788100  0.72827500  0.16522900  1
  O  O36  1  0.84100600  0.50000000  0.39749700  1
  O  O37  1  0.91183700  0.23244000  0.89277300  1
  O  O38  1  0.97998900  0.50000000  0.17617100  1
  O  O39  1  0.91183700  0.76756000  0.89277300  1
  O  O40  1  0.07218150  0.24337950  0.39715800  1
  O  O41  1  0.01740200  0.50000000  0.65704800  1
  O  O42  1  0.17373100  0.50000000  0.90284200  1
  O  O43  1  0.49284300  0.50000000  0.68134900  1
  O  O44  1  0.49509800  0.50000000  0.18715500  1
  O  O45  1  0.07218150  0.75662050  0.39715800  1
  O  O46  1  0.24956450  0.28453050  0.66537500  1
  O  O47  1  0.24956450  0.71546950  0.66537500  1
  O  O48  1  0.15681500  0.00000000  0.90720100  1
  O  O49  1  0.34012200  0.50000000  0.38273300  1
  O  O50  1  0.26788100  0.77172500  0.16522900  1
  O  O51  1  0.26788100  0.22827500  0.16522900  1
  O  O52  1  0.34100600  0.00000000  0.39749700  1
  O  O53  1  0.41183700  0.73244000  0.89277300  1
  O  O54  1  0.47998900  0.00000000  0.17617100  1
  O  O55  1  0.41183700  0.26756000  0.89277300  1
