# generated using pymatgen
data_Fe2O2F3
_symmetry_space_group_name_H-M   'P 1'
_cell_length_a   10.11747800
_cell_length_b   5.12380600
_cell_length_c   7.03928567
_cell_angle_alpha   90.00000000
_cell_angle_beta   109.58445359
_cell_angle_gamma   90.00000000
_symmetry_Int_Tables_number   1
_chemical_formula_structural   Fe2O2F3
_chemical_formula_sum   'Fe8 O8 F12'
_cell_volume   343.80553908
_cell_formula_units_Z   4
loop_
 _symmetry_equiv_pos_site_id
 _symmetry_equiv_pos_as_xyz
  1  'x, y, z'
loop_
 _atom_site_type_symbol
 _atom_site_label
 _atom_site_symmetry_multiplicity
 _atom_site_fract_x
 _atom_site_fract_y
 _atom_site_fract_z
 _atom_site_occupancy
  Fe  Fe0  1  0.80522700  0.49464200  0.62148100  1
  Fe  Fe1  1  0.69477300  0.99464200  0.87851900  1
  Fe  Fe2  1  0.80522700  0.50535800  0.12148100  1
  Fe  Fe3  1  0.69477300  0.00535800  0.37851900  1
  Fe  Fe4  1  0.30522700  0.99464200  0.62148100  1
  Fe  Fe5  1  0.19477300  0.49464200  0.87851900  1
  Fe  Fe6  1  0.30522700  0.00535800  0.12148100  1
  Fe  Fe7  1  0.19477300  0.50535800  0.37851900  1
  O  O8  1  0.71419800  0.16470500  0.64111400  1
  O  O9  1  0.71419800  0.83529500  0.14111400  1
  O  O10  1  0.78580200  0.66470500  0.85888600  1
  O  O11  1  0.78580200  0.33529500  0.35888600  1
  O  O12  1  0.21419800  0.66470500  0.64111400  1
  O  O13  1  0.21419800  0.33529500  0.14111400  1
  O  O14  1  0.28580200  0.16470500  0.85888600  1
  O  O15  1  0.28580200  0.83529500  0.35888600  1
  F  F16  1  0.87636100  0.80880900  0.53522400  1
  F  F17  1  0.87636100  0.19119100  0.03522400  1
  F  F18  1  0.00000000  0.37722200  0.75000000  1
  F  F19  1  0.00000000  0.62277800  0.25000000  1
  F  F20  1  0.62363900  0.30880900  0.96477600  1
  F  F21  1  0.62363900  0.69119100  0.46477600  1
  F  F22  1  0.37636100  0.30880900  0.53522400  1
  F  F23  1  0.37636100  0.69119100  0.03522400  1
  F  F24  1  0.50000000  0.87722200  0.75000000  1
  F  F25  1  0.50000000  0.12277800  0.25000000  1
  F  F26  1  0.12363900  0.80880900  0.96477600  1
  F  F27  1  0.12363900  0.19119100  0.46477600  1
