# generated using pymatgen
data_Mn3NiO8
_symmetry_space_group_name_H-M   'P 1'
_cell_length_a   5.78821143
_cell_length_b   5.78821143
_cell_length_c   13.92762965
_cell_angle_alpha   90.00000000
_cell_angle_beta   90.00000000
_cell_angle_gamma   120.00000000
_symmetry_Int_Tables_number   1
_chemical_formula_structural   Mn3NiO8
_chemical_formula_sum   'Mn9 Ni3 O24'
_cell_volume   404.10722412
_cell_formula_units_Z   3
loop_
 _symmetry_equiv_pos_site_id
 _symmetry_equiv_pos_as_xyz
  1  'x, y, z'
loop_
 _atom_site_type_symbol
 _atom_site_label
 _atom_site_symmetry_multiplicity
 _atom_site_fract_x
 _atom_site_fract_y
 _atom_site_fract_z
 _atom_site_occupancy
  Mn  Mn0  1  0.83333333  0.16666667  0.16666667  1
  Mn  Mn1  1  0.16666667  0.33333333  0.83333333  1
  Mn  Mn2  1  0.33333333  0.16666667  0.16666667  1
  Mn  Mn3  1  0.50000000  0.50000000  0.50000000  1
  Mn  Mn4  1  0.83333333  0.66666667  0.16666667  1
  Mn  Mn5  1  0.00000000  0.50000000  0.50000000  1
  Mn  Mn6  1  0.16666667  0.83333333  0.83333333  1
  Mn  Mn7  1  0.50000000  0.00000000  0.50000000  1
  Mn  Mn8  1  0.66666667  0.83333333  0.83333333  1
  Ni  Ni9  1  0.00000000  0.00000000  0.00000000  1
  Ni  Ni10  1  0.66666667  0.33333333  0.33333333  1
  Ni  Ni11  1  0.33333333  0.66666667  0.66666667  1
  O  O12  1  0.52015733  0.04031467  0.24654667  1
  O  O13  1  0.95968533  0.47984267  0.24654667  1
  O  O14  1  0.52015733  0.47984267  0.24654667  1
  O  O15  1  0.33333333  0.66666667  0.42932767  1
  O  O16  1  0.33333333  0.66666667  0.90400567  1
  O  O17  1  0.14650933  0.85349067  0.08678667  1
  O  O18  1  0.70698133  0.85349067  0.08678667  1
  O  O19  1  0.14650933  0.29301867  0.08678667  1
  O  O20  1  0.18682400  0.37364800  0.57988000  1
  O  O21  1  0.62635200  0.81317600  0.57988000  1
  O  O22  1  0.18682400  0.81317600  0.57988000  1
  O  O23  1  0.00000000  0.00000000  0.76266100  1
  O  O24  1  0.00000000  0.00000000  0.23733900  1
  O  O25  1  0.81317600  0.18682400  0.42012000  1
  O  O26  1  0.37364800  0.18682400  0.42012000  1
  O  O27  1  0.81317600  0.62635200  0.42012000  1
  O  O28  1  0.85349067  0.70698133  0.91321333  1
  O  O29  1  0.29301867  0.14650933  0.91321333  1
  O  O30  1  0.85349067  0.14650933  0.91321333  1
  O  O31  1  0.66666667  0.33333333  0.09599433  1
  O  O32  1  0.66666667  0.33333333  0.57067233  1
  O  O33  1  0.47984267  0.52015733  0.75345333  1
  O  O34  1  0.04031467  0.52015733  0.75345333  1
  O  O35  1  0.47984267  0.95968533  0.75345333  1
