# generated using pymatgen
data_Fe4OF6
_symmetry_space_group_name_H-M   'P 1'
_cell_length_a   7.09560228
_cell_length_b   7.09560228
_cell_length_c   5.18318708
_cell_angle_alpha   90.00000000
_cell_angle_beta   90.00000000
_cell_angle_gamma   90.00000000
_symmetry_Int_Tables_number   1
_chemical_formula_structural   Fe4OF6
_chemical_formula_sum   'Fe8 O2 F12'
_cell_volume   260.96088295
_cell_formula_units_Z   2
loop_
 _symmetry_equiv_pos_site_id
 _symmetry_equiv_pos_as_xyz
  1  'x, y, z'
loop_
 _atom_site_type_symbol
 _atom_site_label
 _atom_site_symmetry_multiplicity
 _atom_site_fract_x
 _atom_site_fract_y
 _atom_site_fract_z
 _atom_site_occupancy
  Fe  Fe0  1  0.75118150  0.50000000  0.30177850  1
  Fe  Fe1  1  0.00000000  0.74881850  0.80177850  1
  Fe  Fe2  1  0.25118150  0.00000000  0.19822150  1
  Fe  Fe3  1  0.50000000  0.24881850  0.69822150  1
  Fe  Fe4  1  0.00000000  0.25118150  0.80177850  1
  Fe  Fe5  1  0.24881850  0.50000000  0.30177850  1
  Fe  Fe6  1  0.50000000  0.75118150  0.69822150  1
  Fe  Fe7  1  0.74881850  0.00000000  0.19822150  1
  O  O8  1  0.50000000  0.50000000  0.50000000  1
  O  O9  1  0.00000000  0.00000000  0.00000000  1
  F  F10  1  0.00000000  0.50000000  0.07147450  1
  F  F11  1  0.00000000  0.50000000  0.57147450  1
  F  F12  1  0.50000000  0.00000000  0.42852550  1
  F  F13  1  0.50000000  0.00000000  0.92852550  1
  F  F14  1  0.70737350  0.29262650  0.00000000  1
  F  F15  1  0.29262650  0.29262650  0.00000000  1
  F  F16  1  0.29262650  0.70737350  0.00000000  1
  F  F17  1  0.70737350  0.70737350  0.00000000  1
  F  F18  1  0.79262650  0.79262650  0.50000000  1
  F  F19  1  0.20737350  0.79262650  0.50000000  1
  F  F20  1  0.79262650  0.20737350  0.50000000  1
  F  F21  1  0.20737350  0.20737350  0.50000000  1
