# generated using pymatgen
data_Li4Mn3Ni3(SnO8)2
_symmetry_space_group_name_H-M   'P 1'
_cell_length_a   10.31877000
_cell_length_b   5.81017800
_cell_length_c   9.65890241
_cell_angle_alpha   90.00000000
_cell_angle_beta   91.92578479
_cell_angle_gamma   90.00000000
_symmetry_Int_Tables_number   1
_chemical_formula_structural   Li4Mn3Ni3(SnO8)2
_chemical_formula_sum   'Li8 Mn6 Ni6 Sn4 O32'
_cell_volume   578.76170382
_cell_formula_units_Z   2
loop_
 _symmetry_equiv_pos_site_id
 _symmetry_equiv_pos_as_xyz
  1  'x, y, z'
loop_
 _atom_site_type_symbol
 _atom_site_label
 _atom_site_symmetry_multiplicity
 _atom_site_fract_x
 _atom_site_fract_y
 _atom_site_fract_z
 _atom_site_occupancy
  Li  Li0  1  0.66171900  0.00000000  0.89064200  1
  Li  Li1  1  0.99730800  0.00000000  0.99311600  1
  Li  Li2  1  0.50239100  0.50000000  0.49565600  1
  Li  Li3  1  0.83162100  0.50000000  0.39120300  1
  Li  Li4  1  0.16171900  0.50000000  0.89064200  1
  Li  Li5  1  0.49730800  0.50000000  0.99311600  1
  Li  Li6  1  0.00239100  0.00000000  0.49565600  1
  Li  Li7  1  0.33162100  0.00000000  0.39120300  1
  Mn  Mn8  1  0.58514450  0.24650450  0.21515800  1
  Mn  Mn9  1  0.58514450  0.75349550  0.21515800  1
  Mn  Mn10  1  0.66990700  0.50000000  0.71667600  1
  Mn  Mn11  1  0.08514450  0.74650450  0.21515800  1
  Mn  Mn12  1  0.08514450  0.25349550  0.21515800  1
  Mn  Mn13  1  0.16990700  0.00000000  0.71667600  1
  Ni  Ni14  1  0.83047800  0.00000000  0.21517300  1
  Ni  Ni15  1  0.91550500  0.74681500  0.71426300  1
  Ni  Ni16  1  0.91550500  0.25318500  0.71426300  1
  Ni  Ni17  1  0.33047800  0.50000000  0.21517300  1
  Ni  Ni18  1  0.41550500  0.24681500  0.71426300  1
  Ni  Ni19  1  0.41550500  0.75318500  0.71426300  1
  Sn  Sn20  1  0.67190300  0.00000000  0.49319600  1
  Sn  Sn21  1  0.83499000  0.50000000  0.99028600  1
  Sn  Sn22  1  0.17190300  0.50000000  0.49319600  1
  Sn  Sn23  1  0.33499000  0.00000000  0.99028600  1
  O  O24  1  0.58802750  0.26242550  0.60055200  1
  O  O25  1  0.51638300  0.00000000  0.33082800  1
  O  O26  1  0.65498500  0.00000000  0.10951800  1
  O  O27  1  0.50960700  0.50000000  0.30900900  1
  O  O28  1  0.50246100  0.50000000  0.80488600  1
  O  O29  1  0.58802750  0.73757450  0.60055200  1
  O  O30  1  0.73470400  0.23107200  0.33840700  1
  O  O31  1  0.73470400  0.76892800  0.33840700  1
  O  O32  1  0.65908900  0.50000000  0.10539300  1
  O  O33  1  0.84824900  0.00000000  0.60010100  1
  O  O34  1  0.74973800  0.72213900  0.83939600  1
  O  O35  1  0.74973800  0.27786100  0.83939600  1
  O  O36  1  0.83123000  0.50000000  0.61578300  1
  O  O37  1  0.92529100  0.75819300  0.09922900  1
  O  O38  1  0.97942500  0.50000000  0.83242800  1
  O  O39  1  0.92529100  0.24180700  0.09922900  1
  O  O40  1  0.08802750  0.76242550  0.60055200  1
  O  O41  1  0.01638300  0.50000000  0.33082800  1
  O  O42  1  0.15498500  0.50000000  0.10951800  1
  O  O43  1  0.00960700  0.00000000  0.30900900  1
  O  O44  1  0.00246100  0.00000000  0.80488600  1
  O  O45  1  0.08802750  0.23757450  0.60055200  1
  O  O46  1  0.23470400  0.73107200  0.33840700  1
  O  O47  1  0.23470400  0.26892800  0.33840700  1
  O  O48  1  0.15908900  0.00000000  0.10539300  1
  O  O49  1  0.34824900  0.50000000  0.60010100  1
  O  O50  1  0.24973800  0.22213900  0.83939600  1
  O  O51  1  0.24973800  0.77786100  0.83939600  1
  O  O52  1  0.33123000  0.00000000  0.61578300  1
  O  O53  1  0.42529100  0.25819300  0.09922900  1
  O  O54  1  0.47942500  0.00000000  0.83242800  1
  O  O55  1  0.42529100  0.74180700  0.09922900  1
