# generated using pymatgen
data_Li2Mn4OF8
_symmetry_space_group_name_H-M   'P 1'
_cell_length_a   9.48339800
_cell_length_b   5.36930000
_cell_length_c   14.68950102
_cell_angle_alpha   90.00000000
_cell_angle_beta   90.81990812
_cell_angle_gamma   90.00000000
_symmetry_Int_Tables_number   1
_chemical_formula_structural   Li2Mn4OF8
_chemical_formula_sum   'Li8 Mn16 O4 F32'
_cell_volume   747.90118729
_cell_formula_units_Z   4
loop_
 _symmetry_equiv_pos_site_id
 _symmetry_equiv_pos_as_xyz
  1  'x, y, z'
loop_
 _atom_site_type_symbol
 _atom_site_label
 _atom_site_symmetry_multiplicity
 _atom_site_fract_x
 _atom_site_fract_y
 _atom_site_fract_z
 _atom_site_occupancy
  Li  Li0  1  0.99547650  0.99611750  0.15579800  1
  Li  Li1  1  0.50998350  0.52384950  0.36601400  1
  Li  Li2  1  0.99547650  0.00388250  0.65579800  1
  Li  Li3  1  0.50998350  0.47615050  0.86601400  1
  Li  Li4  1  0.49547650  0.49611750  0.15579800  1
  Li  Li5  1  0.00998350  0.02384950  0.36601400  1
  Li  Li6  1  0.49547650  0.50388250  0.65579800  1
  Li  Li7  1  0.00998350  0.97615050  0.86601400  1
  Mn  Mn8  1  0.65999750  0.01566750  0.01994200  1
  Mn  Mn9  1  0.66909650  0.98644350  0.31674200  1
  Mn  Mn10  1  0.66909650  0.01355650  0.81674200  1
  Mn  Mn11  1  0.65999750  0.98433250  0.51994200  1
  Mn  Mn12  1  0.82879900  0.49968200  0.18508300  1
  Mn  Mn13  1  0.82879900  0.50031800  0.68508300  1
  Mn  Mn14  1  0.82635800  0.48149000  0.96719000  1
  Mn  Mn15  1  0.82635800  0.51851000  0.46719000  1
  Mn  Mn16  1  0.15999750  0.51566750  0.01994200  1
  Mn  Mn17  1  0.16909650  0.48644350  0.31674200  1
  Mn  Mn18  1  0.16909650  0.51355650  0.81674200  1
  Mn  Mn19  1  0.15999750  0.48433250  0.51994200  1
  Mn  Mn20  1  0.32879900  0.99968200  0.18508300  1
  Mn  Mn21  1  0.32879900  0.00031800  0.68508300  1
  Mn  Mn22  1  0.32635800  0.98149000  0.96719000  1
  Mn  Mn23  1  0.32635800  0.01851000  0.46719000  1
  O  O24  1  0.66555600  0.28006500  0.91799000  1
  O  O25  1  0.66555600  0.71993500  0.41799000  1
  O  O26  1  0.16555600  0.78006500  0.91799000  1
  O  O27  1  0.16555600  0.21993500  0.41799000  1
  F  F28  1  0.50106600  0.19800700  0.74796800  1
  F  F29  1  0.51672500  0.18078200  0.41740800  1
  F  F30  1  0.51672500  0.81921800  0.91740800  1
  F  F31  1  0.50106600  0.80199300  0.24796800  1
  F  F32  1  0.65537150  0.66479150  0.74542400  1
  F  F33  1  0.82798300  0.16062400  0.41614600  1
  F  F34  1  0.68018750  0.65904650  0.08407600  1
  F  F35  1  0.65537150  0.33520850  0.24542400  1
  F  F36  1  0.82798300  0.83937600  0.91614600  1
  F  F37  1  0.68018750  0.34095350  0.58407600  1
  F  F38  1  0.83965550  0.80568950  0.58730400  1
  F  F39  1  0.84880100  0.85036100  0.24599100  1
  F  F40  1  0.97420850  0.65674350  0.08368900  1
  F  F41  1  0.83965550  0.19431050  0.08730400  1
  F  F42  1  0.84880100  0.14963900  0.74599100  1
  F  F43  1  0.97420850  0.34325650  0.58368900  1
  F  F44  1  0.00106600  0.69800700  0.74796800  1
  F  F45  1  0.01672500  0.68078200  0.41740800  1
  F  F46  1  0.01672500  0.31921800  0.91740800  1
  F  F47  1  0.00106600  0.30199300  0.24796800  1
  F  F48  1  0.15537150  0.16479150  0.74542400  1
  F  F49  1  0.32798300  0.66062400  0.41614600  1
  F  F50  1  0.18018750  0.15904650  0.08407600  1
  F  F51  1  0.15537150  0.83520850  0.24542400  1
  F  F52  1  0.32798300  0.33937600  0.91614600  1
  F  F53  1  0.18018750  0.84095350  0.58407600  1
  F  F54  1  0.33965550  0.30568950  0.58730400  1
  F  F55  1  0.34880100  0.35036100  0.24599100  1
  F  F56  1  0.47420850  0.15674350  0.08368900  1
  F  F57  1  0.33965550  0.69431050  0.08730400  1
  F  F58  1  0.34880100  0.64963900  0.74599100  1
  F  F59  1  0.47420850  0.84325650  0.58368900  1
