# generated using pymatgen
data_LiMn2OF3
_symmetry_space_group_name_H-M   'P 1'
_cell_length_a   5.07327500
_cell_length_b   6.26763200
_cell_length_c   10.98858100
_cell_angle_alpha   90.00000000
_cell_angle_beta   90.00000000
_cell_angle_gamma   90.00000000
_symmetry_Int_Tables_number   1
_chemical_formula_structural   LiMn2OF3
_chemical_formula_sum   'Li4 Mn8 O4 F12'
_cell_volume   349.40853347
_cell_formula_units_Z   4
loop_
 _symmetry_equiv_pos_site_id
 _symmetry_equiv_pos_as_xyz
  1  'x, y, z'
loop_
 _atom_site_type_symbol
 _atom_site_label
 _atom_site_symmetry_multiplicity
 _atom_site_fract_x
 _atom_site_fract_y
 _atom_site_fract_z
 _atom_site_occupancy
  Li  Li0  1  0.44014750  0.25000000  0.09124750  1
  Li  Li1  1  0.05985250  0.25000000  0.59124750  1
  Li  Li2  1  0.94014750  0.75000000  0.40875250  1
  Li  Li3  1  0.55985250  0.75000000  0.90875250  1
  Mn  Mn4  1  0.00000000  0.00000000  0.00000000  1
  Mn  Mn5  1  0.00000000  0.50000000  0.00000000  1
  Mn  Mn6  1  0.95687250  0.75000000  0.70961250  1
  Mn  Mn7  1  0.04312750  0.25000000  0.29038750  1
  Mn  Mn8  1  0.50000000  0.50000000  0.50000000  1
  Mn  Mn9  1  0.50000000  0.00000000  0.50000000  1
  Mn  Mn10  1  0.54312750  0.75000000  0.20961250  1
  Mn  Mn11  1  0.45687250  0.25000000  0.79038750  1
  O  O12  1  0.23676650  0.25000000  0.94325250  1
  O  O13  1  0.26323350  0.25000000  0.44325250  1
  O  O14  1  0.73676650  0.75000000  0.55674750  1
  O  O15  1  0.76323350  0.75000000  0.05674750  1
  F  F16  1  0.30216050  0.75000000  0.38851750  1
  F  F17  1  0.19783950  0.75000000  0.88851750  1
  F  F18  1  0.80216050  0.25000000  0.11148250  1
  F  F19  1  0.69783950  0.25000000  0.61148250  1
  F  F20  1  0.26882450  0.48568050  0.17106050  1
  F  F21  1  0.26882450  0.01431950  0.17106050  1
  F  F22  1  0.23117550  0.48568050  0.67106050  1
  F  F23  1  0.23117550  0.01431950  0.67106050  1
  F  F24  1  0.76882450  0.98568050  0.32893950  1
  F  F25  1  0.76882450  0.51431950  0.32893950  1
  F  F26  1  0.73117550  0.98568050  0.82893950  1
  F  F27  1  0.73117550  0.51431950  0.82893950  1
