# generated using pymatgen
data_Mn4(PO4)3
_symmetry_space_group_name_H-M   'P 1'
_cell_length_a   8.49052614
_cell_length_b   8.49052614
_cell_length_c   25.58932610
_cell_angle_alpha   90.00000000
_cell_angle_beta   90.00000000
_cell_angle_gamma   120.00000000
_symmetry_Int_Tables_number   1
_chemical_formula_structural   Mn4(PO4)3
_chemical_formula_sum   'Mn24 P18 O72'
_cell_volume   1597.56555096
_cell_formula_units_Z   6
loop_
 _symmetry_equiv_pos_site_id
 _symmetry_equiv_pos_as_xyz
  1  'x, y, z'
loop_
 _atom_site_type_symbol
 _atom_site_label
 _atom_site_symmetry_multiplicity
 _atom_site_fract_x
 _atom_site_fract_y
 _atom_site_fract_z
 _atom_site_occupancy
  Mn  Mn0  1  0.00000000  0.00000000  0.28874500  1
  Mn  Mn1  1  0.66666667  0.33333333  0.12207833  1
  Mn  Mn2  1  0.28430333  0.91191367  0.17896067  1
  Mn  Mn3  1  0.95097000  0.70572300  0.01229400  1
  Mn  Mn4  1  0.75475300  0.04903000  0.01229400  1
  Mn  Mn5  1  0.29427700  0.24524700  0.01229400  1
  Mn  Mn6  1  0.62761033  0.71569667  0.17896067  1
  Mn  Mn7  1  0.08808633  0.37238967  0.17896067  1
  Mn  Mn8  1  0.66666667  0.33333333  0.62207833  1
  Mn  Mn9  1  0.33333333  0.66666667  0.45541167  1
  Mn  Mn10  1  0.95097000  0.24524700  0.51229400  1
  Mn  Mn11  1  0.61763667  0.03905633  0.34562733  1
  Mn  Mn12  1  0.42141967  0.38236333  0.34562733  1
  Mn  Mn13  1  0.96094367  0.57858033  0.34562733  1
  Mn  Mn14  1  0.29427700  0.04903000  0.51229400  1
  Mn  Mn15  1  0.75475300  0.70572300  0.51229400  1
  Mn  Mn16  1  0.33333333  0.66666667  0.95541167  1
  Mn  Mn17  1  0.00000000  0.00000000  0.78874500  1
  Mn  Mn18  1  0.61763667  0.57858033  0.84562733  1
  Mn  Mn19  1  0.28430333  0.37238967  0.67896067  1
  Mn  Mn20  1  0.08808633  0.71569667  0.67896067  1
  Mn  Mn21  1  0.62761033  0.91191367  0.67896067  1
  Mn  Mn22  1  0.96094367  0.38236333  0.84562733  1
  Mn  Mn23  1  0.42141967  0.03905633  0.84562733  1
  P  P24  1  0.36175433  0.31391167  0.21814067  1
  P  P25  1  0.35275500  0.97157900  0.05147400  1
  P  P26  1  0.02842100  0.38117600  0.05147400  1
  P  P27  1  0.95215733  0.63824567  0.21814067  1
  P  P28  1  0.61882400  0.64724500  0.05147400  1
  P  P29  1  0.68608833  0.04784267  0.21814067  1
  P  P30  1  0.02842100  0.64724500  0.55147400  1
  P  P31  1  0.01942167  0.30491233  0.38480733  1
  P  P32  1  0.69508767  0.71450933  0.38480733  1
  P  P33  1  0.61882400  0.97157900  0.55147400  1
  P  P34  1  0.28549067  0.98057833  0.38480733  1
  P  P35  1  0.35275500  0.38117600  0.55147400  1
  P  P36  1  0.69508767  0.98057833  0.88480733  1
  P  P37  1  0.68608833  0.63824567  0.71814067  1
  P  P38  1  0.36175433  0.04784267  0.71814067  1
  P  P39  1  0.28549067  0.30491233  0.88480733  1
  P  P40  1  0.95215733  0.31391167  0.71814067  1
  P  P41  1  0.01942167  0.71450933  0.88480733  1
  O  O42  1  0.78424133  0.58354567  0.18130067  1
  O  O43  1  0.76827067  0.81453333  0.02015033  1
  O  O44  1  0.62344900  0.09369500  0.26798700  1
  O  O45  1  0.90630500  0.52975400  0.26798700  1
  O  O46  1  0.79930433  0.21575867  0.18130067  1
  O  O47  1  0.57297167  0.70988433  0.10132033  1
  O  O48  1  0.46597100  0.91687900  0.01463400  1
  O  O49  1  0.37959600  0.48120000  0.18681700  1
  O  O50  1  0.72353033  0.54093967  0.06183367  1
  O  O51  1  0.04626267  0.23172933  0.02015033  1
  O  O52  1  0.29011567  0.86308733  0.10132033  1
  O  O53  1  0.41645433  0.20069567  0.18130067  1
  O  O54  1  0.81740933  0.27646967  0.06183367  1
  O  O55  1  0.45906033  0.18259067  0.06183367  1
  O  O56  1  0.79239367  0.94313633  0.22850033  1
  O  O57  1  0.05686367  0.84925733  0.22850033  1
  O  O58  1  0.15074267  0.20760633  0.22850033  1
  O  O59  1  0.18546667  0.95373733  0.02015033  1
  O  O60  1  0.47024600  0.37655100  0.26798700  1
  O  O61  1  0.08312100  0.54909200  0.01463400  1
  O  O62  1  0.51880000  0.89839600  0.18681700  1
  O  O63  1  0.45090800  0.53402900  0.01463400  1
  O  O64  1  0.10160400  0.62040400  0.18681700  1
  O  O65  1  0.13691267  0.42702833  0.10132033  1
  O  O66  1  0.45090800  0.91687900  0.51463400  1
  O  O67  1  0.43493733  0.14786667  0.35348367  1
  O  O68  1  0.29011567  0.42702833  0.60132033  1
  O  O69  1  0.57297167  0.86308733  0.60132033  1
  O  O70  1  0.46597100  0.54909200  0.51463400  1
  O  O71  1  0.23963833  0.04321767  0.43465367  1
  O  O72  1  0.13263767  0.25021233  0.34796733  1
  O  O73  1  0.04626267  0.81453333  0.52015033  1
  O  O74  1  0.39019700  0.87427300  0.39516700  1
  O  O75  1  0.71292933  0.56506267  0.35348367  1
  O  O76  1  0.95678233  0.19642067  0.43465367  1
  O  O77  1  0.08312100  0.53402900  0.51463400  1
  O  O78  1  0.48407600  0.60980300  0.39516700  1
  O  O79  1  0.12572700  0.51592400  0.39516700  1
  O  O80  1  0.45906033  0.27646967  0.56183367  1
  O  O81  1  0.72353033  0.18259067  0.56183367  1
  O  O82  1  0.81740933  0.54093967  0.56183367  1
  O  O83  1  0.85213333  0.28707067  0.35348367  1
  O  O84  1  0.13691267  0.70988433  0.60132033  1
  O  O85  1  0.74978767  0.88242533  0.34796733  1
  O  O86  1  0.18546667  0.23172933  0.52015033  1
  O  O87  1  0.11757467  0.86736233  0.34796733  1
  O  O88  1  0.76827067  0.95373733  0.52015033  1
  O  O89  1  0.80357933  0.76036167  0.43465367  1
  O  O90  1  0.11757467  0.25021233  0.84796733  1
  O  O91  1  0.10160400  0.48120000  0.68681700  1
  O  O92  1  0.95678233  0.76036167  0.93465367  1
  O  O93  1  0.23963833  0.19642067  0.93465367  1
  O  O94  1  0.13263767  0.88242533  0.84796733  1
  O  O95  1  0.90630500  0.37655100  0.76798700  1
  O  O96  1  0.79930433  0.58354567  0.68130067  1
  O  O97  1  0.71292933  0.14786667  0.85348367  1
  O  O98  1  0.05686367  0.20760633  0.72850033  1
  O  O99  1  0.37959600  0.89839600  0.68681700  1
  O  O100  1  0.62344900  0.52975400  0.76798700  1
  O  O101  1  0.74978767  0.86736233  0.84796733  1
  O  O102  1  0.15074267  0.94313633  0.72850033  1
  O  O103  1  0.79239367  0.84925733  0.72850033  1
  O  O104  1  0.12572700  0.60980300  0.89516700  1
  O  O105  1  0.39019700  0.51592400  0.89516700  1
  O  O106  1  0.48407600  0.87427300  0.89516700  1
  O  O107  1  0.51880000  0.62040400  0.68681700  1
  O  O108  1  0.80357933  0.04321767  0.93465367  1
  O  O109  1  0.41645433  0.21575867  0.68130067  1
  O  O110  1  0.85213333  0.56506267  0.85348367  1
  O  O111  1  0.78424133  0.20069567  0.68130067  1
  O  O112  1  0.43493733  0.28707067  0.85348367  1
  O  O113  1  0.47024600  0.09369500  0.76798700  1
