# generated using pymatgen
data_Li3(CrS2)4
_symmetry_space_group_name_H-M   'P 1'
_cell_length_a   6.96954780
_cell_length_b   6.96954780
_cell_length_c   19.46534065
_cell_angle_alpha   90.00000000
_cell_angle_beta   90.00000000
_cell_angle_gamma   120.00000000
_symmetry_Int_Tables_number   1
_chemical_formula_structural   Li3(CrS2)4
_chemical_formula_sum   'Li9 Cr12 S24'
_cell_volume   818.84526424
_cell_formula_units_Z   3
loop_
 _symmetry_equiv_pos_site_id
 _symmetry_equiv_pos_as_xyz
  1  'x, y, z'
loop_
 _atom_site_type_symbol
 _atom_site_label
 _atom_site_symmetry_multiplicity
 _atom_site_fract_x
 _atom_site_fract_y
 _atom_site_fract_z
 _atom_site_occupancy
  Li  Li0  1  0.50154000  0.00308000  0.14090200  1
  Li  Li1  1  0.99692000  0.49846000  0.14090200  1
  Li  Li2  1  0.50154000  0.49846000  0.14090200  1
  Li  Li3  1  0.16820667  0.33641333  0.47423533  1
  Li  Li4  1  0.66358667  0.83179333  0.47423533  1
  Li  Li5  1  0.16820667  0.83179333  0.47423533  1
  Li  Li6  1  0.83487333  0.66974667  0.80756867  1
  Li  Li7  1  0.33025333  0.16512667  0.80756867  1
  Li  Li8  1  0.83487333  0.16512667  0.80756867  1
  Cr  Cr9  1  0.66666667  0.33333333  0.33194833  1
  Cr  Cr10  1  0.67787600  0.83893800  0.32673300  1
  Cr  Cr11  1  0.16106200  0.32212400  0.32673300  1
  Cr  Cr12  1  0.16106200  0.83893800  0.32673300  1
  Cr  Cr13  1  0.33333333  0.66666667  0.66528167  1
  Cr  Cr14  1  0.34454267  0.17227133  0.66006633  1
  Cr  Cr15  1  0.82772867  0.65545733  0.66006633  1
  Cr  Cr16  1  0.82772867  0.17227133  0.66006633  1
  Cr  Cr17  1  0.00000000  0.00000000  0.99861500  1
  Cr  Cr18  1  0.01120933  0.50560467  0.99339967  1
  Cr  Cr19  1  0.49439533  0.98879067  0.99339967  1
  Cr  Cr20  1  0.49439533  0.50560467  0.99339967  1
  S  S21  1  0.66666667  0.33333333  0.06480633  1
  S  S22  1  0.16813000  0.83187000  0.06568700  1
  S  S23  1  0.99922267  0.49961133  0.26422533  1
  S  S24  1  0.50038867  0.00077733  0.26422533  1
  S  S25  1  0.66374000  0.83187000  0.06568700  1
  S  S26  1  0.16813000  0.33626000  0.06568700  1
  S  S27  1  0.50038867  0.49961133  0.26422533  1
  S  S28  1  0.00000000  0.00000000  0.25909400  1
  S  S29  1  0.33333333  0.66666667  0.39813967  1
  S  S30  1  0.83479667  0.16520333  0.39902033  1
  S  S31  1  0.66588933  0.83294467  0.59755867  1
  S  S32  1  0.16705533  0.33411067  0.59755867  1
  S  S33  1  0.33040667  0.16520333  0.39902033  1
  S  S34  1  0.83479667  0.66959333  0.39902033  1
  S  S35  1  0.16705533  0.83294467  0.59755867  1
  S  S36  1  0.66666667  0.33333333  0.59242733  1
  S  S37  1  0.00000000  0.00000000  0.73147300  1
  S  S38  1  0.50146333  0.49853667  0.73235367  1
  S  S39  1  0.33255600  0.16627800  0.93089200  1
  S  S40  1  0.83372200  0.66744400  0.93089200  1
  S  S41  1  0.99707333  0.49853667  0.73235367  1
  S  S42  1  0.50146333  0.00292667  0.73235367  1
  S  S43  1  0.83372200  0.16627800  0.93089200  1
  S  S44  1  0.33333333  0.66666667  0.92576067  1
