# generated using pymatgen
data_Fe2O3F
_symmetry_space_group_name_H-M   'P 1'
_cell_length_a   6.39969600
_cell_length_b   6.87827200
_cell_length_c   12.04345300
_cell_angle_alpha   90.00000000
_cell_angle_beta   90.00000000
_cell_angle_gamma   90.00000000
_symmetry_Int_Tables_number   1
_chemical_formula_structural   Fe2O3F
_chemical_formula_sum   'Fe16 O24 F8'
_cell_volume   530.13894874
_cell_formula_units_Z   8
loop_
 _symmetry_equiv_pos_site_id
 _symmetry_equiv_pos_as_xyz
  1  'x, y, z'
loop_
 _atom_site_type_symbol
 _atom_site_label
 _atom_site_symmetry_multiplicity
 _atom_site_fract_x
 _atom_site_fract_y
 _atom_site_fract_z
 _atom_site_occupancy
  Fe  Fe0  1  0.00000000  0.00000000  0.00000000  1
  Fe  Fe1  1  0.50000000  0.51196400  0.25000000  1
  Fe  Fe2  1  0.00000000  0.00000000  0.50000000  1
  Fe  Fe3  1  0.50000000  0.48803600  0.75000000  1
  Fe  Fe4  1  0.50000000  0.02792100  0.62501500  1
  Fe  Fe5  1  0.50000000  0.97207900  0.12501500  1
  Fe  Fe6  1  0.50000000  0.02792100  0.87498500  1
  Fe  Fe7  1  0.50000000  0.97207900  0.37498500  1
  Fe  Fe8  1  0.50000000  0.50000000  0.00000000  1
  Fe  Fe9  1  0.00000000  0.01196400  0.25000000  1
  Fe  Fe10  1  0.50000000  0.50000000  0.50000000  1
  Fe  Fe11  1  0.00000000  0.98803600  0.75000000  1
  Fe  Fe12  1  0.00000000  0.52792100  0.62501500  1
  Fe  Fe13  1  0.00000000  0.47207900  0.12501500  1
  Fe  Fe14  1  0.00000000  0.52792100  0.87498500  1
  Fe  Fe15  1  0.00000000  0.47207900  0.37498500  1
  O  O16  1  0.50000000  0.31921600  0.62153400  1
  O  O17  1  0.50000000  0.31921600  0.87846600  1
  O  O18  1  0.30687050  0.98921050  0.25000000  1
  O  O19  1  0.30764500  0.00000000  0.50000000  1
  O  O20  1  0.30764500  0.00000000  0.00000000  1
  O  O21  1  0.30687050  0.01078950  0.75000000  1
  O  O22  1  0.69235500  0.00000000  0.50000000  1
  O  O23  1  0.69312950  0.01078950  0.75000000  1
  O  O24  1  0.69235500  0.00000000  0.00000000  1
  O  O25  1  0.69312950  0.98921050  0.25000000  1
  O  O26  1  0.50000000  0.68078400  0.12153400  1
  O  O27  1  0.50000000  0.68078400  0.37846600  1
  O  O28  1  0.00000000  0.81921600  0.62153400  1
  O  O29  1  0.00000000  0.81921600  0.87846600  1
  O  O30  1  0.80687050  0.48921050  0.25000000  1
  O  O31  1  0.80764500  0.50000000  0.50000000  1
  O  O32  1  0.80764500  0.50000000  0.00000000  1
  O  O33  1  0.80687050  0.51078950  0.75000000  1
  O  O34  1  0.19235500  0.50000000  0.50000000  1
  O  O35  1  0.19312950  0.51078950  0.75000000  1
  O  O36  1  0.19235500  0.50000000  0.00000000  1
  O  O37  1  0.19312950  0.48921050  0.25000000  1
  O  O38  1  0.00000000  0.18078400  0.12153400  1
  O  O39  1  0.00000000  0.18078400  0.37846600  1
  F  F40  1  0.50000000  0.29890000  0.12663000  1
  F  F41  1  0.50000000  0.29890000  0.37337000  1
  F  F42  1  0.50000000  0.70110000  0.62663000  1
  F  F43  1  0.50000000  0.70110000  0.87337000  1
  F  F44  1  0.00000000  0.79890000  0.12663000  1
  F  F45  1  0.00000000  0.79890000  0.37337000  1
  F  F46  1  0.00000000  0.20110000  0.62663000  1
  F  F47  1  0.00000000  0.20110000  0.87337000  1
