# generated using pymatgen
data_Ti2Mn(PO4)3
_symmetry_space_group_name_H-M   'P 1'
_cell_length_a   8.67797636
_cell_length_b   8.67797636
_cell_length_c   21.22776110
_cell_angle_alpha   90.00000000
_cell_angle_beta   90.00000000
_cell_angle_gamma   120.00000000
_symmetry_Int_Tables_number   1
_chemical_formula_structural   Ti2Mn(PO4)3
_chemical_formula_sum   'Ti12 Mn6 P18 O72'
_cell_volume   1384.43238114
_cell_formula_units_Z   6
loop_
 _symmetry_equiv_pos_site_id
 _symmetry_equiv_pos_as_xyz
  1  'x, y, z'
loop_
 _atom_site_type_symbol
 _atom_site_label
 _atom_site_symmetry_multiplicity
 _atom_site_fract_x
 _atom_site_fract_y
 _atom_site_fract_z
 _atom_site_occupancy
  Ti  Ti0  1  0.33333333  0.66666667  0.81210367  1
  Ti  Ti1  1  0.33333333  0.66666667  0.02122967  1
  Ti  Ti2  1  0.33333333  0.66666667  0.31210367  1
  Ti  Ti3  1  0.33333333  0.66666667  0.52122967  1
  Ti  Ti4  1  0.00000000  0.00000000  0.14543700  1
  Ti  Ti5  1  1.00000000  0.00000000  0.35456300  1
  Ti  Ti6  1  0.00000000  0.00000000  0.64543700  1
  Ti  Ti7  1  0.00000000  0.00000000  0.85456300  1
  Ti  Ti8  1  0.66666667  0.33333333  0.47877033  1
  Ti  Ti9  1  0.66666667  0.33333333  0.68789633  1
  Ti  Ti10  1  0.66666667  0.33333333  0.97877033  1
  Ti  Ti11  1  0.66666667  0.33333333  0.18789633  1
  Mn  Mn12  1  0.00000000  0.00000000  0.00000000  1
  Mn  Mn13  1  0.33333333  0.66666667  0.16666667  1
  Mn  Mn14  1  0.66666667  0.33333333  0.33333333  1
  Mn  Mn15  1  0.00000000  0.00000000  0.50000000  1
  Mn  Mn16  1  0.33333333  0.66666667  0.66666667  1
  Mn  Mn17  1  0.66666667  0.33333333  0.83333333  1
  P  P18  1  0.66666667  0.62669733  0.08333333  1
  P  P19  1  0.96003067  0.33333333  0.08333333  1
  P  P20  1  0.37330267  0.03996933  0.08333333  1
  P  P21  1  0.29336400  0.29336400  0.25000000  1
  P  P22  1  0.70663600  0.00000000  0.25000000  1
  P  P23  1  0.00000000  0.70663600  0.25000000  1
  P  P24  1  0.33333333  0.96003067  0.41666667  1
  P  P25  1  0.62669733  0.66666667  0.41666667  1
  P  P26  1  0.03996933  0.37330267  0.41666667  1
  P  P27  1  0.96003067  0.62669733  0.58333333  1
  P  P28  1  0.37330267  0.33333333  0.58333333  1
  P  P29  1  0.66666667  0.03996933  0.58333333  1
  P  P30  1  0.00000000  0.29336400  0.75000000  1
  P  P31  1  0.29336400  0.00000000  0.75000000  1
  P  P32  1  0.70663600  0.70663600  0.75000000  1
  P  P33  1  0.62669733  0.96003067  0.91666667  1
  P  P34  1  0.03996933  0.66666667  0.91666667  1
  P  P35  1  0.33333333  0.37330267  0.91666667  1
  O  O36  1  0.33286233  0.47345467  0.97642467  1
  O  O37  1  0.52654533  0.85940767  0.97642467  1
  O  O38  1  0.83495500  0.81480000  0.07881400  1
  O  O39  1  0.14059233  0.66713767  0.97642467  1
  O  O40  1  0.66619567  0.52607433  0.14309133  1
  O  O41  1  0.49837833  0.64651167  0.08785267  1
  O  O42  1  0.97984500  0.16504500  0.07881400  1
  O  O43  1  0.14813333  0.50162167  0.08785267  1
  O  O44  1  0.19274100  0.19321200  0.19024200  1
  O  O45  1  0.35348833  0.85186667  0.08785267  1
  O  O46  1  0.48146667  0.31317833  0.25451933  1
  O  O47  1  0.80678800  0.99952900  0.19024200  1
  O  O48  1  0.85987867  0.33380433  0.14309133  1
  O  O49  1  0.18520000  0.02015500  0.07881400  1
  O  O50  1  0.31317833  0.48146667  0.24548067  1
  O  O51  1  0.47392567  0.14012133  0.14309133  1
  O  O52  1  0.51853333  0.83171167  0.24548067  1
  O  O53  1  0.68682167  0.16828833  0.25451933  1
  O  O54  1  0.16828833  0.68682167  0.24548067  1
  O  O55  1  0.00047100  0.80725900  0.19024200  1
  O  O56  1  0.52607433  0.66619567  0.35690867  1
  O  O57  1  0.83171167  0.51853333  0.25451933  1
  O  O58  1  0.14012133  0.47392567  0.35690867  1
  O  O59  1  0.33380433  0.85987867  0.35690867  1
  O  O60  1  0.99952900  0.80678800  0.30975800  1
  O  O61  1  0.19321200  0.19274100  0.30975800  1
  O  O62  1  0.50162167  0.14813333  0.41214733  1
  O  O63  1  0.80725900  0.00047100  0.30975800  1
  O  O64  1  0.33286233  0.85940767  0.47642467  1
  O  O65  1  0.16504500  0.97984500  0.42118600  1
  O  O66  1  0.64651167  0.49837833  0.41214733  1
  O  O67  1  0.81480000  0.83495500  0.42118600  1
  O  O68  1  0.85940767  0.52654533  0.52357533  1
  O  O69  1  0.02015500  0.18520000  0.42118600  1
  O  O70  1  0.14813333  0.64651167  0.58785267  1
  O  O71  1  0.47345467  0.33286233  0.52357533  1
  O  O72  1  0.52654533  0.66713767  0.47642467  1
  O  O73  1  0.85186667  0.35348833  0.41214733  1
  O  O74  1  0.97984500  0.81480000  0.57881400  1
  O  O75  1  0.14059233  0.47345467  0.47642467  1
  O  O76  1  0.18520000  0.16504500  0.57881400  1
  O  O77  1  0.35348833  0.50162167  0.58785267  1
  O  O78  1  0.83495500  0.02015500  0.57881400  1
  O  O79  1  0.66713767  0.14059233  0.52357533  1
  O  O80  1  0.19274100  0.99952900  0.69024200  1
  O  O81  1  0.49837833  0.85186667  0.58785267  1
  O  O82  1  0.80678800  0.80725900  0.69024200  1
  O  O83  1  0.00047100  0.19321200  0.69024200  1
  O  O84  1  0.66619567  0.14012133  0.64309133  1
  O  O85  1  0.85987867  0.52607433  0.64309133  1
  O  O86  1  0.16828833  0.48146667  0.74548067  1
  O  O87  1  0.47392567  0.33380433  0.64309133  1
  O  O88  1  0.99952900  0.19274100  0.80975800  1
  O  O89  1  0.83171167  0.31317833  0.75451933  1
  O  O90  1  0.31317833  0.83171167  0.74548067  1
  O  O91  1  0.48146667  0.16828833  0.75451933  1
  O  O92  1  0.52607433  0.85987867  0.85690867  1
  O  O93  1  0.68682167  0.51853333  0.75451933  1
  O  O94  1  0.81480000  0.97984500  0.92118600  1
  O  O95  1  0.14012133  0.66619567  0.85690867  1
  O  O96  1  0.19321200  0.00047100  0.80975800  1
  O  O97  1  0.51853333  0.68682167  0.74548067  1
  O  O98  1  0.64651167  0.14813333  0.91214733  1
  O  O99  1  0.80725900  0.80678800  0.80975800  1
  O  O100  1  0.85186667  0.49837833  0.91214733  1
  O  O101  1  0.02015500  0.83495500  0.92118600  1
  O  O102  1  0.50162167  0.35348833  0.91214733  1
  O  O103  1  0.33380433  0.47392567  0.85690867  1
  O  O104  1  0.85940767  0.33286233  0.02357533  1
  O  O105  1  0.16504500  0.18520000  0.92118600  1
  O  O106  1  0.47345467  0.14059233  0.02357533  1
  O  O107  1  0.66713767  0.52654533  0.02357533  1
