# generated using pymatgen
data_Mn6O11F
_symmetry_space_group_name_H-M   'P 1'
_cell_length_a   6.33706400
_cell_length_b   6.42699000
_cell_length_c   8.97458500
_cell_angle_alpha   90.00000000
_cell_angle_beta   90.00000000
_cell_angle_gamma   90.00000000
_symmetry_Int_Tables_number   1
_chemical_formula_structural   Mn6O11F
_chemical_formula_sum   'Mn12 O22 F2'
_cell_volume   365.51911422
_cell_formula_units_Z   2
loop_
 _symmetry_equiv_pos_site_id
 _symmetry_equiv_pos_as_xyz
  1  'x, y, z'
loop_
 _atom_site_type_symbol
 _atom_site_label
 _atom_site_symmetry_multiplicity
 _atom_site_fract_x
 _atom_site_fract_y
 _atom_site_fract_z
 _atom_site_occupancy
  Mn  Mn0  1  0.50000000  0.49270200  0.17442100  1
  Mn  Mn1  1  0.50000000  0.50096600  0.50000000  1
  Mn  Mn2  1  0.50000000  0.49270200  0.82557900  1
  Mn  Mn3  1  0.50000000  0.01938800  0.00000000  1
  Mn  Mn4  1  0.50000000  0.99690200  0.33336500  1
  Mn  Mn5  1  0.50000000  0.99690200  0.66663500  1
  Mn  Mn6  1  0.00000000  0.99270200  0.17442100  1
  Mn  Mn7  1  0.00000000  0.00096600  0.50000000  1
  Mn  Mn8  1  0.00000000  0.99270200  0.82557900  1
  Mn  Mn9  1  0.00000000  0.51938800  0.00000000  1
  Mn  Mn10  1  0.00000000  0.49690200  0.33336500  1
  Mn  Mn11  1  0.00000000  0.49690200  0.66663500  1
  O  O12  1  0.50000000  0.30385900  0.33523800  1
  O  O13  1  0.50000000  0.30385900  0.66476200  1
  O  O14  1  0.50000000  0.30983100  0.00000000  1
  O  O15  1  0.30540100  0.99974800  0.16628400  1
  O  O16  1  0.30598450  0.99995850  0.50000000  1
  O  O17  1  0.30540100  0.99974800  0.83371600  1
  O  O18  1  0.69459900  0.99974800  0.16628400  1
  O  O19  1  0.69401550  0.99995850  0.50000000  1
  O  O20  1  0.69459900  0.99974800  0.83371600  1
  O  O21  1  0.50000000  0.69243400  0.33441900  1
  O  O22  1  0.50000000  0.69243400  0.66558100  1
  O  O23  1  0.00000000  0.80385900  0.33523800  1
  O  O24  1  0.00000000  0.80385900  0.66476200  1
  O  O25  1  0.00000000  0.80983100  0.00000000  1
  O  O26  1  0.80540100  0.49974800  0.16628400  1
  O  O27  1  0.80598450  0.49995850  0.50000000  1
  O  O28  1  0.80540100  0.49974800  0.83371600  1
  O  O29  1  0.19459900  0.49974800  0.16628400  1
  O  O30  1  0.19401550  0.49995850  0.50000000  1
  O  O31  1  0.19459900  0.49974800  0.83371600  1
  O  O32  1  0.00000000  0.19243400  0.33441900  1
  O  O33  1  0.00000000  0.19243400  0.66558100  1
  F  F34  1  0.50000000  0.69911400  0.00000000  1
  F  F35  1  0.00000000  0.19911400  0.00000000  1
