# generated using pymatgen
data_Fe(SbO3)4
_symmetry_space_group_name_H-M   'P 1'
_cell_length_a   5.15936390
_cell_length_b   5.48162693
_cell_length_c   7.57201962
_cell_angle_alpha   85.32388666
_cell_angle_beta   89.94920819
_cell_angle_gamma   89.93779361
_symmetry_Int_Tables_number   1
_chemical_formula_structural   Fe(SbO3)4
_chemical_formula_sum   'Fe1 Sb4 O12'
_cell_volume   213.43664865
_cell_formula_units_Z   1
loop_
 _symmetry_equiv_pos_site_id
 _symmetry_equiv_pos_as_xyz
  1  'x, y, z'
loop_
 _atom_site_type_symbol
 _atom_site_label
 _atom_site_symmetry_multiplicity
 _atom_site_fract_x
 _atom_site_fract_y
 _atom_site_fract_z
 _atom_site_occupancy
  Fe  Fe0  1  0.00343000  0.41867000  0.71813100  1
  Sb  Sb1  1  0.99392500  0.01112400  0.02459600  1
  Sb  Sb2  1  0.50331600  0.53159500  0.49531600  1
  Sb  Sb3  1  0.00741300  0.01109400  0.50159900  1
  Sb  Sb4  1  0.49687100  0.53039400  0.01478500  1
  O  O5  1  0.71629200  0.23681500  0.58612800  1
  O  O6  1  0.85617700  0.02307300  0.26552600  1
  O  O7  1  0.68148200  0.84040100  0.94490100  1
  O  O8  1  0.82122200  0.70206000  0.58925100  1
  O  O9  1  0.18105000  0.70325300  0.08174400  1
  O  O10  1  0.64103500  0.51922700  0.25701800  1
  O  O11  1  0.35743300  0.53607200  0.75745000  1
  O  O12  1  0.81495900  0.34286000  0.94347700  1
  O  O13  1  0.17297200  0.34967200  0.47430200  1
  O  O14  1  0.31015400  0.21166800  0.07670100  1
  O  O15  1  0.10853200  0.06129900  0.76314300  1
  O  O16  1  0.33373600  0.85212100  0.44663100  1
