# generated using pymatgen
data_Nb2SbO6
_symmetry_space_group_name_H-M   'P 1'
_cell_length_a   17.17280400
_cell_length_b   5.04243400
_cell_length_c   5.62876271
_cell_angle_alpha   90.00000000
_cell_angle_beta   91.22417150
_cell_angle_gamma   90.00000000
_symmetry_Int_Tables_number   1
_chemical_formula_structural   Nb2SbO6
_chemical_formula_sum   'Nb8 Sb4 O24'
_cell_volume   487.29868734
_cell_formula_units_Z   4
loop_
 _symmetry_equiv_pos_site_id
 _symmetry_equiv_pos_as_xyz
  1  'x, y, z'
loop_
 _atom_site_type_symbol
 _atom_site_label
 _atom_site_symmetry_multiplicity
 _atom_site_fract_x
 _atom_site_fract_y
 _atom_site_fract_z
 _atom_site_occupancy
  Nb  Nb0  1  0.82695750  0.25525150  0.82860300  1
  Nb  Nb1  1  0.82695750  0.74474850  0.32860300  1
  Nb  Nb2  1  0.67304250  0.75525150  0.67139700  1
  Nb  Nb3  1  0.67304250  0.24474850  0.17139700  1
  Nb  Nb4  1  0.32695750  0.75525150  0.82860300  1
  Nb  Nb5  1  0.32695750  0.24474850  0.32860300  1
  Nb  Nb6  1  0.17304250  0.25525150  0.67139700  1
  Nb  Nb7  1  0.17304250  0.74474850  0.17139700  1
  Sb  Sb8  1  0.00000000  0.80664900  0.75000000  1
  Sb  Sb9  1  0.00000000  0.19335100  0.25000000  1
  Sb  Sb10  1  0.50000000  0.30664900  0.75000000  1
  Sb  Sb11  1  0.50000000  0.69335100  0.25000000  1
  O  O12  1  0.71978750  0.43565450  0.84894000  1
  O  O13  1  0.71978750  0.56434550  0.34894000  1
  O  O14  1  0.86161250  0.45771450  0.57103400  1
  O  O15  1  0.86161250  0.54228550  0.07103400  1
  O  O16  1  0.93321400  0.08054900  0.91938200  1
  O  O17  1  0.93321400  0.91945100  0.41938200  1
  O  O18  1  0.56678600  0.58054900  0.58061800  1
  O  O19  1  0.56678600  0.41945100  0.08061800  1
  O  O20  1  0.63838750  0.95771450  0.92896600  1
  O  O21  1  0.63838750  0.04228550  0.42896600  1
  O  O22  1  0.78021250  0.93565450  0.65106000  1
  O  O23  1  0.78021250  0.06434550  0.15106000  1
  O  O24  1  0.21978750  0.93565450  0.84894000  1
  O  O25  1  0.21978750  0.06434550  0.34894000  1
  O  O26  1  0.36161250  0.95771450  0.57103400  1
  O  O27  1  0.36161250  0.04228550  0.07103400  1
  O  O28  1  0.43321400  0.58054900  0.91938200  1
  O  O29  1  0.43321400  0.41945100  0.41938200  1
  O  O30  1  0.06678600  0.08054900  0.58061800  1
  O  O31  1  0.06678600  0.91945100  0.08061800  1
  O  O32  1  0.13838750  0.45771450  0.92896600  1
  O  O33  1  0.13838750  0.54228550  0.42896600  1
  O  O34  1  0.28021250  0.43565450  0.65106000  1
  O  O35  1  0.28021250  0.56434550  0.15106000  1
