# generated using pymatgen
data_Li2CoSnO4
_symmetry_space_group_name_H-M   'P 1'
_cell_length_a   5.26820443
_cell_length_b   3.09491864
_cell_length_c   5.36613777
_cell_angle_alpha   90.00000000
_cell_angle_beta   109.80997266
_cell_angle_gamma   90.00000000
_symmetry_Int_Tables_number   1
_chemical_formula_structural   Li2CoSnO4
_chemical_formula_sum   'Li2 Co1 Sn1 O4'
_cell_volume   82.31539068
_cell_formula_units_Z   1
loop_
 _symmetry_equiv_pos_site_id
 _symmetry_equiv_pos_as_xyz
  1  'x, y, z'
loop_
 _atom_site_type_symbol
 _atom_site_label
 _atom_site_symmetry_multiplicity
 _atom_site_fract_x
 _atom_site_fract_y
 _atom_site_fract_z
 _atom_site_occupancy
  Li  Li0  1  0.00000000  0.00000000  0.00000000  1
  Li  Li1  1  0.00000000  0.50000000  0.50000000  1
  Co  Co2  1  0.50000000  0.00000000  0.50000000  1
  Sn  Sn3  1  0.50000000  0.50000000  0.00000000  1
  O  O4  1  0.25733050  0.00000000  0.76407200  1
  O  O5  1  0.74266950  0.00000000  0.23592800  1
  O  O6  1  0.27580600  0.50000000  0.25000700  1
  O  O7  1  0.72419400  0.50000000  0.74999300  1
