# generated using pymatgen
data_Li4Ti5Cr3O16
_symmetry_space_group_name_H-M   'P 1'
_cell_length_a   10.26221200
_cell_length_b   5.92656600
_cell_length_c   9.55997821
_cell_angle_alpha   90.00000000
_cell_angle_beta   90.09880553
_cell_angle_gamma   90.00000000
_symmetry_Int_Tables_number   1
_chemical_formula_structural   Li4Ti5Cr3O16
_chemical_formula_sum   'Li8 Ti10 Cr6 O32'
_cell_volume   581.43391997
_cell_formula_units_Z   2
loop_
 _symmetry_equiv_pos_site_id
 _symmetry_equiv_pos_as_xyz
  1  'x, y, z'
loop_
 _atom_site_type_symbol
 _atom_site_label
 _atom_site_symmetry_multiplicity
 _atom_site_fract_x
 _atom_site_fract_y
 _atom_site_fract_z
 _atom_site_occupancy
  Li  Li0  1  0.66432100  0.00000000  0.10547800  1
  Li  Li1  1  0.99906500  0.00000000  0.00685900  1
  Li  Li2  1  0.99934400  0.00000000  0.50349600  1
  Li  Li3  1  0.33369200  0.00000000  0.60164900  1
  Li  Li4  1  0.16432100  0.50000000  0.10547800  1
  Li  Li5  1  0.49906500  0.50000000  0.00685900  1
  Li  Li6  1  0.49934400  0.50000000  0.50349600  1
  Li  Li7  1  0.83369200  0.50000000  0.60164900  1
  Ti  Ti8  1  0.17395000  0.00000000  0.27661700  1
  Ti  Ti9  1  0.58907550  0.75443450  0.78142600  1
  Ti  Ti10  1  0.66762400  0.00000000  0.50258200  1
  Ti  Ti11  1  0.58907550  0.24556550  0.78142600  1
  Ti  Ti12  1  0.34060100  0.00000000  0.00819300  1
  Ti  Ti13  1  0.67395000  0.50000000  0.27661700  1
  Ti  Ti14  1  0.08907550  0.25443450  0.78142600  1
  Ti  Ti15  1  0.16762400  0.50000000  0.50258200  1
  Ti  Ti16  1  0.08907550  0.74556550  0.78142600  1
  Ti  Ti17  1  0.84060100  0.50000000  0.00819300  1
  Cr  Cr18  1  0.82917900  0.00000000  0.78872600  1
  Cr  Cr19  1  0.41486500  0.75521400  0.28804800  1
  Cr  Cr20  1  0.41486500  0.24478600  0.28804800  1
  Cr  Cr21  1  0.32917900  0.50000000  0.78872600  1
  Cr  Cr22  1  0.91486500  0.25521400  0.28804800  1
  Cr  Cr23  1  0.91486500  0.74478600  0.28804800  1
  O  O24  1  0.58544500  0.75109100  0.40415400  1
  O  O25  1  0.51954400  0.00000000  0.65893000  1
  O  O26  1  0.66270000  0.00000000  0.89699300  1
  O  O27  1  0.99887700  0.00000000  0.69122700  1
  O  O28  1  0.00186700  0.00000000  0.19321200  1
  O  O29  1  0.58544500  0.24890900  0.40415400  1
  O  O30  1  0.73812100  0.77801200  0.66067500  1
  O  O31  1  0.73812100  0.22198800  0.66067500  1
  O  O32  1  0.16744900  0.00000000  0.90270100  1
  O  O33  1  0.83174800  0.00000000  0.40573400  1
  O  O34  1  0.25650850  0.78028250  0.15874900  1
  O  O35  1  0.25650850  0.21971750  0.15874900  1
  O  O36  1  0.32759200  0.00000000  0.39610300  1
  O  O37  1  0.41863300  0.75222700  0.90459200  1
  O  O38  1  0.47749900  0.00000000  0.15835100  1
  O  O39  1  0.41863300  0.24777300  0.90459200  1
  O  O40  1  0.08544500  0.25109100  0.40415400  1
  O  O41  1  0.01954400  0.50000000  0.65893000  1
  O  O42  1  0.16270000  0.50000000  0.89699300  1
  O  O43  1  0.49887700  0.50000000  0.69122700  1
  O  O44  1  0.50186700  0.50000000  0.19321200  1
  O  O45  1  0.08544500  0.74890900  0.40415400  1
  O  O46  1  0.23812100  0.27801200  0.66067500  1
  O  O47  1  0.23812100  0.72198800  0.66067500  1
  O  O48  1  0.66744900  0.50000000  0.90270100  1
  O  O49  1  0.33174800  0.50000000  0.40573400  1
  O  O50  1  0.75650850  0.28028250  0.15874900  1
  O  O51  1  0.75650850  0.71971750  0.15874900  1
  O  O52  1  0.82759200  0.50000000  0.39610300  1
  O  O53  1  0.91863300  0.25222700  0.90459200  1
  O  O54  1  0.97749900  0.50000000  0.15835100  1
  O  O55  1  0.91863300  0.74777300  0.90459200  1
