# generated using pymatgen
data_NaVPO5
_symmetry_space_group_name_H-M   'P 1'
_cell_length_a   6.48782800
_cell_length_b   7.44918100
_cell_length_c   7.83541200
_cell_angle_alpha   90.00000000
_cell_angle_beta   90.00000000
_cell_angle_gamma   90.00000000
_symmetry_Int_Tables_number   1
_chemical_formula_structural   NaVPO5
_chemical_formula_sum   'Na4 V4 P4 O20'
_cell_volume   378.67766627
_cell_formula_units_Z   4
loop_
 _symmetry_equiv_pos_site_id
 _symmetry_equiv_pos_as_xyz
  1  'x, y, z'
loop_
 _atom_site_type_symbol
 _atom_site_label
 _atom_site_symmetry_multiplicity
 _atom_site_fract_x
 _atom_site_fract_y
 _atom_site_fract_z
 _atom_site_occupancy
  Na  Na0  1  0.00000000  0.00000000  0.00000000  1
  Na  Na1  1  0.50000000  0.00000000  0.00000000  1
  Na  Na2  1  0.00000000  0.50000000  0.50000000  1
  Na  Na3  1  0.50000000  0.50000000  0.50000000  1
  V  V4  1  0.25000000  0.33122100  0.21295550  1
  V  V5  1  0.25000000  0.83122100  0.28704450  1
  V  V6  1  0.75000000  0.16877900  0.71295550  1
  V  V7  1  0.75000000  0.66877900  0.78704450  1
  P  P8  1  0.25000000  0.12422600  0.60567950  1
  P  P9  1  0.75000000  0.37577400  0.10567950  1
  P  P10  1  0.25000000  0.62422600  0.89432050  1
  P  P11  1  0.75000000  0.87577400  0.39432050  1
  O  O12  1  0.75000000  0.05643100  0.49157650  1
  O  O13  1  0.25000000  0.44356900  0.99157650  1
  O  O14  1  0.75000000  0.55643100  0.00842350  1
  O  O15  1  0.25000000  0.94356900  0.50842350  1
  O  O16  1  0.25000000  0.10379300  0.17940950  1
  O  O17  1  0.75000000  0.39620700  0.67940950  1
  O  O18  1  0.25000000  0.60379300  0.32059050  1
  O  O19  1  0.75000000  0.89620700  0.82059050  1
  O  O20  1  0.75000000  0.21577800  0.97740250  1
  O  O21  1  0.25000000  0.28422200  0.47740250  1
  O  O22  1  0.75000000  0.71577800  0.52259750  1
  O  O23  1  0.25000000  0.78422200  0.02259750  1
  O  O24  1  0.05903200  0.13585200  0.72501150  1
  O  O25  1  0.44096800  0.13585200  0.72501150  1
  O  O26  1  0.55903200  0.36414800  0.22501150  1
  O  O27  1  0.94096800  0.36414800  0.22501150  1
  O  O28  1  0.05903200  0.63585200  0.77498850  1
  O  O29  1  0.44096800  0.63585200  0.77498850  1
  O  O30  1  0.55903200  0.86414800  0.27498850  1
  O  O31  1  0.94096800  0.86414800  0.27498850  1
