# generated using pymatgen
data_Li3V4CuO12
_symmetry_space_group_name_H-M   'P 1'
_cell_length_a   10.26108200
_cell_length_b   9.12314600
_cell_length_c   5.86640319
_cell_angle_alpha   90.00000000
_cell_angle_beta   111.52260254
_cell_angle_gamma   90.00000000
_symmetry_Int_Tables_number   1
_chemical_formula_structural   Li3V4CuO12
_chemical_formula_sum   'Li6 V8 Cu2 O24'
_cell_volume   510.88137296
_cell_formula_units_Z   2
loop_
 _symmetry_equiv_pos_site_id
 _symmetry_equiv_pos_as_xyz
  1  'x, y, z'
loop_
 _atom_site_type_symbol
 _atom_site_label
 _atom_site_symmetry_multiplicity
 _atom_site_fract_x
 _atom_site_fract_y
 _atom_site_fract_z
 _atom_site_occupancy
  Li  Li0  1  0.00000000  0.09506800  0.00000000  1
  Li  Li1  1  0.00000000  0.24331600  0.50000000  1
  Li  Li2  1  0.00000000  0.75666500  0.00000000  1
  Li  Li3  1  0.50000000  0.59506800  0.00000000  1
  Li  Li4  1  0.50000000  0.74331600  0.50000000  1
  Li  Li5  1  0.50000000  0.25666500  0.00000000  1
  V  V6  1  0.20490200  0.40542000  0.98018500  1
  V  V7  1  0.20514650  0.59422050  0.48121000  1
  V  V8  1  0.79509800  0.40542000  0.01981500  1
  V  V9  1  0.79485350  0.59422050  0.51879000  1
  V  V10  1  0.70490200  0.90542000  0.98018500  1
  V  V11  1  0.70514650  0.09422050  0.48121000  1
  V  V12  1  0.29509800  0.90542000  0.01981500  1
  V  V13  1  0.29485350  0.09422050  0.51879000  1
  Cu  Cu14  1  0.00000000  0.90766700  0.50000000  1
  Cu  Cu15  1  0.50000000  0.40766700  0.50000000  1
  O  O16  1  0.38394750  0.39973550  0.09927100  1
  O  O17  1  0.13738000  0.23615200  0.92364600  1
  O  O18  1  0.38402900  0.59750700  0.59072300  1
  O  O19  1  0.14114500  0.50101700  0.18964100  1
  O  O20  1  0.86262000  0.23615200  0.07635400  1
  O  O21  1  0.13952500  0.49966800  0.68931200  1
  O  O22  1  0.85885500  0.50101700  0.81035900  1
  O  O23  1  0.13631800  0.76492000  0.42208500  1
  O  O24  1  0.86047500  0.49966800  0.31068800  1
  O  O25  1  0.61605250  0.39973550  0.90072900  1
  O  O26  1  0.86368200  0.76492000  0.57791500  1
  O  O27  1  0.61597100  0.59750700  0.40927700  1
  O  O28  1  0.88394750  0.89973550  0.09927100  1
  O  O29  1  0.63738000  0.73615200  0.92364600  1
  O  O30  1  0.88402900  0.09750700  0.59072300  1
  O  O31  1  0.64114500  0.00101700  0.18964100  1
  O  O32  1  0.36262000  0.73615200  0.07635400  1
  O  O33  1  0.63952500  0.99966800  0.68931200  1
  O  O34  1  0.35885500  0.00101700  0.81035900  1
  O  O35  1  0.63631800  0.26492000  0.42208500  1
  O  O36  1  0.36047500  0.99966800  0.31068800  1
  O  O37  1  0.11605250  0.89973550  0.90072900  1
  O  O38  1  0.36368200  0.26492000  0.57791500  1
  O  O39  1  0.11597100  0.09750700  0.40927700  1
