# generated using pymatgen
data_Li2Co2Si2O7
_symmetry_space_group_name_H-M   'P 1'
_cell_length_a   5.07869730
_cell_length_b   8.33489227
_cell_length_c   13.20079740
_cell_angle_alpha   90.00000000
_cell_angle_beta   90.00000000
_cell_angle_gamma   90.00000000
_symmetry_Int_Tables_number   1
_chemical_formula_structural   Li2Co2Si2O7
_chemical_formula_sum   'Li8 Co8 Si8 O28'
_cell_volume   558.79496710
_cell_formula_units_Z   4
loop_
 _symmetry_equiv_pos_site_id
 _symmetry_equiv_pos_as_xyz
  1  'x, y, z'
loop_
 _atom_site_type_symbol
 _atom_site_label
 _atom_site_symmetry_multiplicity
 _atom_site_fract_x
 _atom_site_fract_y
 _atom_site_fract_z
 _atom_site_occupancy
  Li  Li0  1  0.54619600  0.79815800  0.41621950  1
  Li  Li1  1  0.54619600  0.79815800  0.08378050  1
  Li  Li2  1  0.54619600  0.20184200  0.91621950  1
  Li  Li3  1  0.54619600  0.20184200  0.58378050  1
  Li  Li4  1  0.04619600  0.29815800  0.41621950  1
  Li  Li5  1  0.04619600  0.29815800  0.08378050  1
  Li  Li6  1  0.04619600  0.70184200  0.91621950  1
  Li  Li7  1  0.04619600  0.70184200  0.58378050  1
  Co  Co8  1  0.02762050  0.00000000  0.00000000  1
  Co  Co9  1  0.02762050  0.00000000  0.50000000  1
  Co  Co10  1  0.00853400  0.99915500  0.25000000  1
  Co  Co11  1  0.00853400  0.00084500  0.75000000  1
  Co  Co12  1  0.52762050  0.50000000  0.00000000  1
  Co  Co13  1  0.52762050  0.50000000  0.50000000  1
  Co  Co14  1  0.50853400  0.49915500  0.25000000  1
  Co  Co15  1  0.50853400  0.50084500  0.75000000  1
  Si  Si16  1  0.54714950  0.84956850  0.86299050  1
  Si  Si17  1  0.54714950  0.84956850  0.63700950  1
  Si  Si18  1  0.54714950  0.15043150  0.36299050  1
  Si  Si19  1  0.54714950  0.15043150  0.13700950  1
  Si  Si20  1  0.04714950  0.34956850  0.86299050  1
  Si  Si21  1  0.04714950  0.34956850  0.63700950  1
  Si  Si22  1  0.04714950  0.65043150  0.36299050  1
  Si  Si23  1  0.04714950  0.65043150  0.13700950  1
  O  O24  1  0.61180250  0.75901750  0.75000000  1
  O  O25  1  0.61180250  0.24098250  0.25000000  1
  O  O26  1  0.23577850  0.89840750  0.86395250  1
  O  O27  1  0.23577850  0.89840750  0.63604750  1
  O  O28  1  0.23577850  0.10159250  0.13604750  1
  O  O29  1  0.23577850  0.10159250  0.36395250  1
  O  O30  1  0.73775200  0.99039600  0.12961950  1
  O  O31  1  0.73775200  0.99039600  0.37038050  1
  O  O32  1  0.73775200  0.00960400  0.62961950  1
  O  O33  1  0.73775200  0.00960400  0.87038050  1
  O  O34  1  0.64626900  0.72260100  0.94742050  1
  O  O35  1  0.64626900  0.72260100  0.55257950  1
  O  O36  1  0.64626900  0.27739900  0.44742050  1
  O  O37  1  0.64626900  0.27739900  0.05257950  1
  O  O38  1  0.11180250  0.25901750  0.75000000  1
  O  O39  1  0.11180250  0.74098250  0.25000000  1
  O  O40  1  0.73577850  0.39840750  0.86395250  1
  O  O41  1  0.73577850  0.39840750  0.63604750  1
  O  O42  1  0.73577850  0.60159250  0.13604750  1
  O  O43  1  0.73577850  0.60159250  0.36395250  1
  O  O44  1  0.23775200  0.49039600  0.12961950  1
  O  O45  1  0.23775200  0.49039600  0.37038050  1
  O  O46  1  0.23775200  0.50960400  0.62961950  1
  O  O47  1  0.23775200  0.50960400  0.87038050  1
  O  O48  1  0.14626900  0.22260100  0.94742050  1
  O  O49  1  0.14626900  0.22260100  0.55257950  1
  O  O50  1  0.14626900  0.77739900  0.44742050  1
  O  O51  1  0.14626900  0.77739900  0.05257950  1
