# generated using pymatgen
data_VF4
_symmetry_space_group_name_H-M   'P 1'
_cell_length_a   11.42155200
_cell_length_b   5.19914600
_cell_length_c   5.47520179
_cell_angle_alpha   90.00000000
_cell_angle_beta   93.70832199
_cell_angle_gamma   90.00000000
_symmetry_Int_Tables_number   1
_chemical_formula_structural   VF4
_chemical_formula_sum   'V4 F16'
_cell_volume   324.44941861
_cell_formula_units_Z   4
loop_
 _symmetry_equiv_pos_site_id
 _symmetry_equiv_pos_as_xyz
  1  'x, y, z'
loop_
 _atom_site_type_symbol
 _atom_site_label
 _atom_site_symmetry_multiplicity
 _atom_site_fract_x
 _atom_site_fract_y
 _atom_site_fract_z
 _atom_site_occupancy
  V  V0  1  0.75000000  0.25000000  0.00000000  1
  V  V1  1  0.75000000  0.75000000  0.50000000  1
  V  V2  1  0.25000000  0.75000000  0.00000000  1
  V  V3  1  0.25000000  0.25000000  0.50000000  1
  F  F4  1  0.89626200  0.14816400  0.00024200  1
  F  F5  1  0.79045800  0.45591900  0.29719400  1
  F  F6  1  0.79045800  0.54408100  0.79719400  1
  F  F7  1  0.60373800  0.64816400  0.49975800  1
  F  F8  1  0.89626200  0.85183600  0.50024200  1
  F  F9  1  0.70954200  0.95591900  0.20280600  1
  F  F10  1  0.70954200  0.04408100  0.70280600  1
  F  F11  1  0.60373800  0.35183600  0.99975800  1
  F  F12  1  0.39626200  0.64816400  0.00024200  1
  F  F13  1  0.29045800  0.95591900  0.29719400  1
  F  F14  1  0.29045800  0.04408100  0.79719400  1
  F  F15  1  0.10373800  0.14816400  0.49975800  1
  F  F16  1  0.39626200  0.35183600  0.50024200  1
  F  F17  1  0.20954200  0.45591900  0.20280600  1
  F  F18  1  0.20954200  0.54408100  0.70280600  1
  F  F19  1  0.10373800  0.85183600  0.99975800  1
