# generated using pymatgen
data_LiCrF4
_symmetry_space_group_name_H-M   'P 1'
_cell_length_a   15.70716600
_cell_length_b   10.22224600
_cell_length_c   7.36324990
_cell_angle_alpha   90.00000000
_cell_angle_beta   100.69906012
_cell_angle_gamma   90.00000000
_symmetry_Int_Tables_number   1
_chemical_formula_structural   LiCrF4
_chemical_formula_sum   'Li16 Cr16 F64'
_cell_volume   1161.70929306
_cell_formula_units_Z   16
loop_
 _symmetry_equiv_pos_site_id
 _symmetry_equiv_pos_as_xyz
  1  'x, y, z'
loop_
 _atom_site_type_symbol
 _atom_site_label
 _atom_site_symmetry_multiplicity
 _atom_site_fract_x
 _atom_site_fract_y
 _atom_site_fract_z
 _atom_site_occupancy
  Li  Li0  1  0.31222000  0.79906700  0.89156300  1
  Li  Li1  1  0.31222000  0.20093300  0.39156300  1
  Li  Li2  1  0.38543150  0.00344050  0.15883700  1
  Li  Li3  1  0.38543150  0.99655950  0.65883700  1
  Li  Li4  1  0.61456850  0.00344050  0.34116300  1
  Li  Li5  1  0.61456850  0.99655950  0.84116300  1
  Li  Li6  1  0.68778000  0.79906700  0.60843700  1
  Li  Li7  1  0.68778000  0.20093300  0.10843700  1
  Li  Li8  1  0.81222000  0.29906700  0.89156300  1
  Li  Li9  1  0.81222000  0.70093300  0.39156300  1
  Li  Li10  1  0.88543150  0.50344050  0.15883700  1
  Li  Li11  1  0.88543150  0.49655950  0.65883700  1
  Li  Li12  1  0.11456850  0.50344050  0.34116300  1
  Li  Li13  1  0.11456850  0.49655950  0.84116300  1
  Li  Li14  1  0.18778000  0.29906700  0.60843700  1
  Li  Li15  1  0.18778000  0.70093300  0.10843700  1
  Cr  Cr16  1  0.17504650  0.00394450  0.08955100  1
  Cr  Cr17  1  0.17504650  0.99605550  0.58955100  1
  Cr  Cr18  1  0.50246300  0.75321100  0.99820900  1
  Cr  Cr19  1  0.49753700  0.75321100  0.50179100  1
  Cr  Cr20  1  0.50246300  0.24678900  0.49820900  1
  Cr  Cr21  1  0.49753700  0.24678900  0.00179100  1
  Cr  Cr22  1  0.82495350  0.00394450  0.41044900  1
  Cr  Cr23  1  0.82495350  0.99605550  0.91044900  1
  Cr  Cr24  1  0.67504650  0.50394450  0.08955100  1
  Cr  Cr25  1  0.67504650  0.49605550  0.58955100  1
  Cr  Cr26  1  0.00246300  0.25321100  0.99820900  1
  Cr  Cr27  1  0.99753700  0.25321100  0.50179100  1
  Cr  Cr28  1  0.00246300  0.74678900  0.49820900  1
  Cr  Cr29  1  0.99753700  0.74678900  0.00179100  1
  Cr  Cr30  1  0.32495350  0.50394450  0.41044900  1
  Cr  Cr31  1  0.32495350  0.49605550  0.91044900  1
  F  F32  1  0.17379850  0.93670250  0.33759400  1
  F  F33  1  0.43199650  0.59975850  0.39875800  1
  F  F34  1  0.24747850  0.85675150  0.68003200  1
  F  F35  1  0.27864700  0.89713000  0.08720500  1
  F  F36  1  0.17379850  0.06329750  0.83759400  1
  F  F37  1  0.39031350  0.65896150  0.00239000  1
  F  F38  1  0.39884950  0.85382850  0.50621000  1
  F  F39  1  0.24747850  0.14324850  0.18003200  1
  F  F40  1  0.27864700  0.10287000  0.58720500  1
  F  F41  1  0.56800350  0.59975850  0.10124200  1
  F  F42  1  0.50000000  0.68494600  0.75000000  1
  F  F43  1  0.50000000  0.82740500  0.25000000  1
  F  F44  1  0.60968650  0.65896150  0.49761000  1
  F  F45  1  0.42376500  0.89521400  0.90147600  1
  F  F46  1  0.42376500  0.10478600  0.40147600  1
  F  F47  1  0.39884950  0.14617150  0.00621000  1
  F  F48  1  0.39031350  0.34103850  0.50239000  1
  F  F49  1  0.60115050  0.85382850  0.99379000  1
  F  F50  1  0.57623500  0.89521400  0.59852400  1
  F  F51  1  0.57623500  0.10478600  0.09852400  1
  F  F52  1  0.50000000  0.17259500  0.75000000  1
  F  F53  1  0.50000000  0.31505400  0.25000000  1
  F  F54  1  0.43199650  0.40024150  0.89875800  1
  F  F55  1  0.72135300  0.89713000  0.41279500  1
  F  F56  1  0.75252150  0.85675150  0.81996800  1
  F  F57  1  0.60115050  0.14617150  0.49379000  1
  F  F58  1  0.60968650  0.34103850  0.99761000  1
  F  F59  1  0.82620150  0.93670250  0.16240600  1
  F  F60  1  0.72135300  0.10287000  0.91279500  1
  F  F61  1  0.75252150  0.14324850  0.31996800  1
  F  F62  1  0.56800350  0.40024150  0.60124200  1
  F  F63  1  0.82620150  0.06329750  0.66240600  1
  F  F64  1  0.67379850  0.43670250  0.33759400  1
  F  F65  1  0.93199650  0.09975850  0.39875800  1
  F  F66  1  0.74747850  0.35675150  0.68003200  1
  F  F67  1  0.77864700  0.39713000  0.08720500  1
  F  F68  1  0.67379850  0.56329750  0.83759400  1
  F  F69  1  0.89031350  0.15896150  0.00239000  1
  F  F70  1  0.89884950  0.35382850  0.50621000  1
  F  F71  1  0.74747850  0.64324850  0.18003200  1
  F  F72  1  0.77864700  0.60287000  0.58720500  1
  F  F73  1  0.06800350  0.09975850  0.10124200  1
  F  F74  1  0.00000000  0.18494600  0.75000000  1
  F  F75  1  0.00000000  0.32740500  0.25000000  1
  F  F76  1  0.10968650  0.15896150  0.49761000  1
  F  F77  1  0.92376500  0.39521400  0.90147600  1
  F  F78  1  0.92376500  0.60478600  0.40147600  1
  F  F79  1  0.89884950  0.64617150  0.00621000  1
  F  F80  1  0.89031350  0.84103850  0.50239000  1
  F  F81  1  0.10115050  0.35382850  0.99379000  1
  F  F82  1  0.07623500  0.39521400  0.59852400  1
  F  F83  1  0.07623500  0.60478600  0.09852400  1
  F  F84  1  0.00000000  0.67259500  0.75000000  1
  F  F85  1  0.00000000  0.81505400  0.25000000  1
  F  F86  1  0.93199650  0.90024150  0.89875800  1
  F  F87  1  0.22135300  0.39713000  0.41279500  1
  F  F88  1  0.25252150  0.35675150  0.81996800  1
  F  F89  1  0.10115050  0.64617150  0.49379000  1
  F  F90  1  0.10968650  0.84103850  0.99761000  1
  F  F91  1  0.32620150  0.43670250  0.16240600  1
  F  F92  1  0.22135300  0.60287000  0.91279500  1
  F  F93  1  0.25252150  0.64324850  0.31996800  1
  F  F94  1  0.06800350  0.90024150  0.60124200  1
  F  F95  1  0.32620150  0.56329750  0.66240600  1
