# generated using pymatgen
data_Ce4ThO9
_symmetry_space_group_name_H-M   'P 1'
_cell_length_a   8.75098000
_cell_length_b   8.75098000
_cell_length_c   5.60736200
_cell_angle_alpha   90.00000000
_cell_angle_beta   90.00000000
_cell_angle_gamma   90.00000000
_symmetry_Int_Tables_number   1
_chemical_formula_structural   Ce4ThO9
_chemical_formula_sum   'Ce8 Th2 O18'
_cell_volume   429.40982477
_cell_formula_units_Z   2
loop_
 _symmetry_equiv_pos_site_id
 _symmetry_equiv_pos_as_xyz
  1  'x, y, z'
loop_
 _atom_site_type_symbol
 _atom_site_label
 _atom_site_symmetry_multiplicity
 _atom_site_fract_x
 _atom_site_fract_y
 _atom_site_fract_z
 _atom_site_occupancy
  Ce  Ce0  1  0.61009550  0.71078250  0.77466350  1
  Ce  Ce1  1  0.21078250  0.88990450  0.72533650  1
  Ce  Ce2  1  0.38990450  0.28921750  0.77466350  1
  Ce  Ce3  1  0.78921750  0.11009550  0.72533650  1
  Ce  Ce4  1  0.11009550  0.21078250  0.27466350  1
  Ce  Ce5  1  0.71078250  0.38990450  0.22533650  1
  Ce  Ce6  1  0.88990450  0.78921750  0.27466350  1
  Ce  Ce7  1  0.28921750  0.61009550  0.22533650  1
  Th  Th8  1  0.50000000  0.00000000  0.25000000  1
  Th  Th9  1  0.00000000  0.50000000  0.75000000  1
  O  O10  1  0.00000000  0.00000000  0.50000000  1
  O  O11  1  0.30858650  0.09084250  0.50616550  1
  O  O12  1  0.40915750  0.80858650  0.99383450  1
  O  O13  1  0.59465750  0.22594550  0.49537650  1
  O  O14  1  0.40534250  0.77405450  0.49537650  1
  O  O15  1  0.59084250  0.19141350  0.99383450  1
  O  O16  1  0.27405450  0.09465750  0.00462350  1
  O  O17  1  0.72594550  0.90534250  0.00462350  1
  O  O18  1  0.69141350  0.90915750  0.50616550  1
  O  O19  1  0.50000000  0.50000000  0.00000000  1
  O  O20  1  0.80858650  0.59084250  0.00616550  1
  O  O21  1  0.90915750  0.30858650  0.49383450  1
  O  O22  1  0.09465750  0.72594550  0.99537650  1
  O  O23  1  0.90534250  0.27405450  0.99537650  1
  O  O24  1  0.09084250  0.69141350  0.49383450  1
  O  O25  1  0.77405450  0.59465750  0.50462350  1
  O  O26  1  0.22594550  0.40534250  0.50462350  1
  O  O27  1  0.19141350  0.40915750  0.00616550  1
