# generated using pymatgen
data_Li3Fe3NiO8
_symmetry_space_group_name_H-M   'P 1'
_cell_length_a   10.22808600
_cell_length_b   5.94538600
_cell_length_c   5.97447354
_cell_angle_alpha   90.00000000
_cell_angle_beta   125.20282114
_cell_angle_gamma   90.00000000
_symmetry_Int_Tables_number   1
_chemical_formula_structural   Li3Fe3NiO8
_chemical_formula_sum   'Li6 Fe6 Ni2 O16'
_cell_volume   296.86435730
_cell_formula_units_Z   2
loop_
 _symmetry_equiv_pos_site_id
 _symmetry_equiv_pos_as_xyz
  1  'x, y, z'
loop_
 _atom_site_type_symbol
 _atom_site_label
 _atom_site_symmetry_multiplicity
 _atom_site_fract_x
 _atom_site_fract_y
 _atom_site_fract_z
 _atom_site_occupancy
  Li  Li0  1  0.25000000  0.75000000  0.00000000  1
  Li  Li1  1  0.75000000  0.75000000  0.00000000  1
  Li  Li2  1  0.00000000  0.50000000  0.00000000  1
  Li  Li3  1  0.75000000  0.25000000  0.00000000  1
  Li  Li4  1  0.25000000  0.25000000  0.00000000  1
  Li  Li5  1  0.50000000  0.00000000  0.00000000  1
  Fe  Fe6  1  0.25000000  0.75000000  0.50000000  1
  Fe  Fe7  1  0.25000000  0.25000000  0.50000000  1
  Fe  Fe8  1  0.50000000  0.00000000  0.50000000  1
  Fe  Fe9  1  0.75000000  0.25000000  0.50000000  1
  Fe  Fe10  1  0.75000000  0.75000000  0.50000000  1
  Fe  Fe11  1  0.00000000  0.50000000  0.50000000  1
  Ni  Ni12  1  0.00000000  0.00000000  0.50000000  1
  Ni  Ni13  1  0.50000000  0.50000000  0.50000000  1
  O  O14  1  0.50638550  0.77143850  0.28207500  1
  O  O15  1  0.26678700  0.00000000  0.27662300  1
  O  O16  1  0.25570300  0.50000000  0.27642900  1
  O  O17  1  0.00638550  0.72856150  0.28207500  1
  O  O18  1  0.49361450  0.77143850  0.71792500  1
  O  O19  1  0.24429700  0.00000000  0.72357100  1
  O  O20  1  0.23321300  0.50000000  0.72337700  1
  O  O21  1  0.99361450  0.72856150  0.71792500  1
  O  O22  1  0.00638550  0.27143850  0.28207500  1
  O  O23  1  0.76678700  0.50000000  0.27662300  1
  O  O24  1  0.75570300  0.00000000  0.27642900  1
  O  O25  1  0.50638550  0.22856150  0.28207500  1
  O  O26  1  0.99361450  0.27143850  0.71792500  1
  O  O27  1  0.74429700  0.50000000  0.72357100  1
  O  O28  1  0.73321300  0.00000000  0.72337700  1
  O  O29  1  0.49361450  0.22856150  0.71792500  1
