# generated using pymatgen
data_Fe3Co(PO4)4
_symmetry_space_group_name_H-M   'P 1'
_cell_length_a   4.86004600
_cell_length_b   5.89075500
_cell_length_c   9.93831967
_cell_angle_alpha   90.00000000
_cell_angle_beta   90.12505746
_cell_angle_gamma   90.00000000
_symmetry_Int_Tables_number   1
_chemical_formula_structural   Fe3Co(PO4)4
_chemical_formula_sum   'Fe3 Co1 P4 O16'
_cell_volume   284.52685793
_cell_formula_units_Z   1
loop_
 _symmetry_equiv_pos_site_id
 _symmetry_equiv_pos_as_xyz
  1  'x, y, z'
loop_
 _atom_site_type_symbol
 _atom_site_label
 _atom_site_symmetry_multiplicity
 _atom_site_fract_x
 _atom_site_fract_y
 _atom_site_fract_z
 _atom_site_occupancy
  Fe  Fe0  1  0.46835000  0.00000000  0.22655900  1
  Fe  Fe1  1  0.53721400  0.50000000  0.77624200  1
  Fe  Fe2  1  0.96760800  0.50000000  0.27477700  1
  Co  Co3  1  0.06683600  0.00000000  0.71583700  1
  P  P4  1  0.07505200  0.50000000  0.59622100  1
  P  P5  1  0.41571700  0.50000000  0.09656600  1
  P  P6  1  0.58674500  0.00000000  0.89722800  1
  P  P7  1  0.91863100  0.00000000  0.40759300  1
  O  O8  1  0.15440600  0.50000000  0.44805000  1
  O  O9  1  0.22370000  0.70205300  0.67337800  1
  O  O10  1  0.22370000  0.29794700  0.67337800  1
  O  O11  1  0.22847300  0.00000000  0.38433000  1
  O  O12  1  0.27036300  0.00000000  0.87876500  1
  O  O13  1  0.26985100  0.70307800  0.17227900  1
  O  O14  1  0.26985100  0.29692200  0.17227900  1
  O  O15  1  0.34593400  0.50000000  0.94750700  1
  O  O16  1  0.64075100  0.00000000  0.04945700  1
  O  O17  1  0.72960400  0.20536400  0.82609900  1
  O  O18  1  0.72960400  0.79463600  0.82609900  1
  O  O19  1  0.72580200  0.50000000  0.12014400  1
  O  O20  1  0.76558800  0.50000000  0.61549300  1
  O  O21  1  0.77076500  0.20276000  0.33218500  1
  O  O22  1  0.77076500  0.79724000  0.33218500  1
  O  O23  1  0.84468800  0.00000000  0.55734900  1
