# generated using pymatgen
data_LiCo2CuO6
_symmetry_space_group_name_H-M   'P 1'
_cell_length_a   12.98134034
_cell_length_b   2.81761803
_cell_length_c   5.79731000
_cell_angle_alpha   90.00000000
_cell_angle_beta   104.52283914
_cell_angle_gamma   90.00000000
_symmetry_Int_Tables_number   1
_chemical_formula_structural   LiCo2CuO6
_chemical_formula_sum   'Li2 Co4 Cu2 O12'
_cell_volume   205.26975401
_cell_formula_units_Z   2
loop_
 _symmetry_equiv_pos_site_id
 _symmetry_equiv_pos_as_xyz
  1  'x, y, z'
loop_
 _atom_site_type_symbol
 _atom_site_label
 _atom_site_symmetry_multiplicity
 _atom_site_fract_x
 _atom_site_fract_y
 _atom_site_fract_z
 _atom_site_occupancy
  Li  Li0  1  0.66843400  0.00000000  0.83788600  1
  Li  Li1  1  0.16843400  0.50000000  0.83788600  1
  Co  Co2  1  0.50209100  0.50000000  0.00688400  1
  Co  Co3  1  0.66134350  0.00000000  0.34137100  1
  Co  Co4  1  0.00209100  0.00000000  0.00688400  1
  Co  Co5  1  0.16134350  0.50000000  0.34137100  1
  Cu  Cu6  1  0.83735350  0.50000000  0.65052600  1
  Cu  Cu7  1  0.33735350  0.00000000  0.65052600  1
  O  O8  1  0.50440550  0.00000000  0.79236400  1
  O  O9  1  0.81081200  0.00000000  0.42734600  1
  O  O10  1  0.65193000  0.50000000  0.11128100  1
  O  O11  1  0.85065000  0.00000000  0.87550100  1
  O  O12  1  0.66919450  0.50000000  0.56458200  1
  O  O13  1  0.51046350  0.00000000  0.22559100  1
  O  O14  1  0.00440550  0.50000000  0.79236400  1
  O  O15  1  0.31081200  0.50000000  0.42734600  1
  O  O16  1  0.15193000  0.00000000  0.11128100  1
  O  O17  1  0.35065000  0.50000000  0.87550100  1
  O  O18  1  0.16919450  0.00000000  0.56458200  1
  O  O19  1  0.01046350  0.50000000  0.22559100  1
