# generated using pymatgen
data_Li4MnNb2WO12
_symmetry_space_group_name_H-M   'P 1'
_cell_length_a   5.16427373
_cell_length_b   5.46349838
_cell_length_c   7.52237307
_cell_angle_alpha   94.47069027
_cell_angle_beta   90.01825221
_cell_angle_gamma   90.12687290
_symmetry_Int_Tables_number   1
_chemical_formula_structural   Li4MnNb2WO12
_chemical_formula_sum   'Li4 Mn1 Nb2 W1 O12'
_cell_volume   211.59743463
_cell_formula_units_Z   1
loop_
 _symmetry_equiv_pos_site_id
 _symmetry_equiv_pos_as_xyz
  1  'x, y, z'
loop_
 _atom_site_type_symbol
 _atom_site_label
 _atom_site_symmetry_multiplicity
 _atom_site_fract_x
 _atom_site_fract_y
 _atom_site_fract_z
 _atom_site_occupancy
  Li  Li0  1  0.99787600  0.43561300  0.30989700  1
  Li  Li1  1  0.49862300  0.90701700  0.76914100  1
  Li  Li2  1  0.00630200  0.48796100  0.73852100  1
  Li  Li3  1  0.49622900  0.92345000  0.30896200  1
  Mn  Mn4  1  0.50006000  0.49973900  0.49857800  1
  Nb  Nb5  1  0.00447100  0.00154100  0.51046600  1
  Nb  Nb6  1  0.49833100  0.47452500  0.00048700  1
  W  W7  1  0.00307000  0.98876600  0.00784000  1
  O  O8  1  0.29984500  0.21200400  0.43577300  1
  O  O9  1  0.12405300  0.01692400  0.75776100  1
  O  O10  1  0.31269100  0.82928700  0.05668300  1
  O  O11  1  0.20565300  0.70613400  0.43673500  1
  O  O12  1  0.81869600  0.69991500  0.93136000  1
  O  O13  1  0.39044300  0.52453000  0.74556300  1
  O  O14  1  0.61384600  0.51177400  0.24535000  1
  O  O15  1  0.17182400  0.31897200  0.05704900  1
  O  O16  1  0.80394700  0.31954800  0.54386900  1
  O  O17  1  0.69101200  0.18299400  0.92960000  1
  O  O18  1  0.87262700  0.00812900  0.23965300  1
  O  O19  1  0.69040100  0.80877000  0.54791800  1
