# generated using pymatgen
data_Li2FeO2F
_symmetry_space_group_name_H-M   'P 1'
_cell_length_a   5.96977200
_cell_length_b   8.41277400
_cell_length_c   9.55225685
_cell_angle_alpha   90.00000000
_cell_angle_beta   108.15119717
_cell_angle_gamma   90.00000000
_symmetry_Int_Tables_number   1
_chemical_formula_structural   Li2FeO2F
_chemical_formula_sum   'Li16 Fe8 O16 F8'
_cell_volume   455.86393549
_cell_formula_units_Z   8
loop_
 _symmetry_equiv_pos_site_id
 _symmetry_equiv_pos_as_xyz
  1  'x, y, z'
loop_
 _atom_site_type_symbol
 _atom_site_label
 _atom_site_symmetry_multiplicity
 _atom_site_fract_x
 _atom_site_fract_y
 _atom_site_fract_z
 _atom_site_occupancy
  Li  Li0  1  0.75769450  0.87361450  0.27446800  1
  Li  Li1  1  0.75769450  0.12638550  0.77446800  1
  Li  Li2  1  0.57070200  0.61823700  0.39414000  1
  Li  Li3  1  0.41906100  0.62375900  0.08793200  1
  Li  Li4  1  0.57070200  0.38176300  0.89414000  1
  Li  Li5  1  0.41906100  0.37624100  0.58793200  1
  Li  Li6  1  0.25684150  0.87369150  0.25954100  1
  Li  Li7  1  0.25684150  0.12630850  0.75954100  1
  Li  Li8  1  0.25769450  0.37361450  0.27446800  1
  Li  Li9  1  0.25769450  0.62638550  0.77446800  1
  Li  Li10  1  0.07070200  0.11823700  0.39414000  1
  Li  Li11  1  0.91906100  0.12375900  0.08793200  1
  Li  Li12  1  0.07070200  0.88176300  0.89414000  1
  Li  Li13  1  0.91906100  0.87624100  0.58793200  1
  Li  Li14  1  0.75684150  0.37369150  0.25954100  1
  Li  Li15  1  0.75684150  0.62630850  0.75954100  1
  Fe  Fe16  1  0.41588250  0.12521950  0.07962500  1
  Fe  Fe17  1  0.57126450  0.12574350  0.39401400  1
  Fe  Fe18  1  0.41588250  0.87478050  0.57962500  1
  Fe  Fe19  1  0.57126450  0.87425650  0.89401400  1
  Fe  Fe20  1  0.91588250  0.62521950  0.07962500  1
  Fe  Fe21  1  0.07126450  0.62574350  0.39401400  1
  Fe  Fe22  1  0.91588250  0.37478050  0.57962500  1
  Fe  Fe23  1  0.07126450  0.37425650  0.89401400  1
  O  O24  1  0.26366850  0.12881450  0.24518000  1
  O  O25  1  0.57996200  0.89251100  0.42966200  1
  O  O26  1  0.60018100  0.35913600  0.42937300  1
  O  O27  1  0.26366850  0.87118550  0.74518000  1
  O  O28  1  0.73139700  0.12067300  0.24542400  1
  O  O29  1  0.57996200  0.10748900  0.92966200  1
  O  O30  1  0.60018100  0.64086400  0.92937300  1
  O  O31  1  0.73139700  0.87932700  0.74542400  1
  O  O32  1  0.76366850  0.62881450  0.24518000  1
  O  O33  1  0.07996200  0.39251100  0.42966200  1
  O  O34  1  0.10018100  0.85913600  0.42937300  1
  O  O35  1  0.76366850  0.37118550  0.74518000  1
  O  O36  1  0.23139700  0.62067300  0.24542400  1
  O  O37  1  0.07996200  0.60748900  0.92966200  1
  O  O38  1  0.10018100  0.14086400  0.92937300  1
  O  O39  1  0.23139700  0.37932700  0.74542400  1
  F  F40  1  0.42450600  0.37302400  0.07951200  1
  F  F41  1  0.40883850  0.87635350  0.08112800  1
  F  F42  1  0.42450600  0.62697600  0.57951200  1
  F  F43  1  0.40883850  0.12364650  0.58112800  1
  F  F44  1  0.92450600  0.87302400  0.07951200  1
  F  F45  1  0.90883850  0.37635350  0.08112800  1
  F  F46  1  0.92450600  0.12697600  0.57951200  1
  F  F47  1  0.90883850  0.62364650  0.58112800  1
