# generated using pymatgen
data_Li3Fe3O8
_symmetry_space_group_name_H-M   'P 1'
_cell_length_a   5.70843200
_cell_length_b   5.99317800
_cell_length_c   8.35155800
_cell_angle_alpha   90.00000000
_cell_angle_beta   90.00000000
_cell_angle_gamma   90.00000000
_symmetry_Int_Tables_number   1
_chemical_formula_structural   Li3Fe3O8
_chemical_formula_sum   'Li6 Fe6 O16'
_cell_volume   285.72057154
_cell_formula_units_Z   2
loop_
 _symmetry_equiv_pos_site_id
 _symmetry_equiv_pos_as_xyz
  1  'x, y, z'
loop_
 _atom_site_type_symbol
 _atom_site_label
 _atom_site_symmetry_multiplicity
 _atom_site_fract_x
 _atom_site_fract_y
 _atom_site_fract_z
 _atom_site_occupancy
  Li  Li0  1  0.25024400  0.50000000  0.75109300  1
  Li  Li1  1  0.74975600  0.50000000  0.75109300  1
  Li  Li2  1  0.00000000  0.50000000  0.14320700  1
  Li  Li3  1  0.75024400  0.00000000  0.25109300  1
  Li  Li4  1  0.24975600  0.00000000  0.25109300  1
  Li  Li5  1  0.50000000  0.00000000  0.64320700  1
  Fe  Fe6  1  0.50000000  0.74296050  0.99412500  1
  Fe  Fe7  1  0.50000000  0.50000000  0.35645400  1
  Fe  Fe8  1  0.50000000  0.25703950  0.99412500  1
  Fe  Fe9  1  0.00000000  0.24296050  0.49412500  1
  Fe  Fe10  1  0.00000000  0.00000000  0.85645400  1
  Fe  Fe11  1  0.00000000  0.75703950  0.49412500  1
  O  O12  1  0.76679700  0.50000000  0.50021600  1
  O  O13  1  0.23320300  0.50000000  0.50021600  1
  O  O14  1  0.50000000  0.74232350  0.78116200  1
  O  O15  1  0.50000000  0.24568150  0.22552200  1
  O  O16  1  0.50000000  0.25767650  0.78116200  1
  O  O17  1  0.50000000  0.75431850  0.22552200  1
  O  O18  1  0.27431900  0.50000000  0.99805300  1
  O  O19  1  0.72568100  0.50000000  0.99805300  1
  O  O20  1  0.26679700  0.00000000  0.00021600  1
  O  O21  1  0.73320300  0.00000000  0.00021600  1
  O  O22  1  0.00000000  0.24232350  0.28116200  1
  O  O23  1  0.00000000  0.74568150  0.72552200  1
  O  O24  1  0.00000000  0.75767650  0.28116200  1
  O  O25  1  0.00000000  0.25431850  0.72552200  1
  O  O26  1  0.77431900  0.00000000  0.49805300  1
  O  O27  1  0.22568100  0.00000000  0.49805300  1
