# generated using pymatgen
data_Na3MnO3
_symmetry_space_group_name_H-M   'P 1'
_cell_length_a   5.79332878
_cell_length_b   5.91026664
_cell_length_c   6.57870561
_cell_angle_alpha   114.18791457
_cell_angle_beta   90.54809921
_cell_angle_gamma   90.61791205
_symmetry_Int_Tables_number   1
_chemical_formula_structural   Na3MnO3
_chemical_formula_sum   'Na6 Mn2 O6'
_cell_volume   205.44358756
_cell_formula_units_Z   2
loop_
 _symmetry_equiv_pos_site_id
 _symmetry_equiv_pos_as_xyz
  1  'x, y, z'
loop_
 _atom_site_type_symbol
 _atom_site_label
 _atom_site_symmetry_multiplicity
 _atom_site_fract_x
 _atom_site_fract_y
 _atom_site_fract_z
 _atom_site_occupancy
  Na  Na0  1  0.93460500  0.76486000  0.55123750  1
  Na  Na1  1  0.06539500  0.23514000  0.44876250  1
  Na  Na2  1  0.87753400  0.77008700  0.01979100  1
  Na  Na3  1  0.12246600  0.22991300  0.98020900  1
  Na  Na4  1  0.55417000  0.24025850  0.22567150  1
  Na  Na5  1  0.44583000  0.75974150  0.77432850  1
  Mn  Mn6  1  0.61542400  0.19832700  0.68230850  1
  Mn  Mn7  1  0.38457600  0.80167300  0.31769150  1
  O  O8  1  0.74840300  0.10019100  0.89278550  1
  O  O9  1  0.25159700  0.89980900  0.10721450  1
  O  O10  1  0.76449200  0.47565450  0.67325050  1
  O  O11  1  0.23550800  0.52434550  0.32674950  1
  O  O12  1  0.69071700  0.94432900  0.35713100  1
  O  O13  1  0.30928300  0.05567100  0.64286900  1
