# generated using pymatgen
data_Li6Bi5O14
_symmetry_space_group_name_H-M   'P 1'
_cell_length_a   11.04772400
_cell_length_b   12.12774600
_cell_length_c   10.66687200
_cell_angle_alpha   90.00000000
_cell_angle_beta   90.00000000
_cell_angle_gamma   90.00000000
_symmetry_Int_Tables_number   1
_chemical_formula_structural   Li6Bi5O14
_chemical_formula_sum   'Li24 Bi20 O56'
_cell_volume   1429.19007725
_cell_formula_units_Z   4
loop_
 _symmetry_equiv_pos_site_id
 _symmetry_equiv_pos_as_xyz
  1  'x, y, z'
loop_
 _atom_site_type_symbol
 _atom_site_label
 _atom_site_symmetry_multiplicity
 _atom_site_fract_x
 _atom_site_fract_y
 _atom_site_fract_z
 _atom_site_occupancy
  Li  Li0  1  0.26926350  0.91556850  0.02356000  1
  Li  Li1  1  0.26926350  0.08443150  0.52356000  1
  Li  Li2  1  0.35464250  0.84974550  0.48941100  1
  Li  Li3  1  0.35464250  0.15025450  0.98941100  1
  Li  Li4  1  0.50000000  0.49360100  0.04442300  1
  Li  Li5  1  0.50000000  0.22768600  0.56693100  1
  Li  Li6  1  0.50000000  0.77231400  0.06693100  1
  Li  Li7  1  0.50000000  0.50639900  0.54442300  1
  Li  Li8  1  0.64535750  0.15025450  0.98941100  1
  Li  Li9  1  0.64535750  0.84974550  0.48941100  1
  Li  Li10  1  0.73073650  0.91556850  0.02356000  1
  Li  Li11  1  0.73073650  0.08443150  0.52356000  1
  Li  Li12  1  0.76926350  0.41556850  0.02356000  1
  Li  Li13  1  0.76926350  0.58443150  0.52356000  1
  Li  Li14  1  0.85464250  0.34974550  0.48941100  1
  Li  Li15  1  0.85464250  0.65025450  0.98941100  1
  Li  Li16  1  0.00000000  0.99360100  0.04442300  1
  Li  Li17  1  0.00000000  0.72768600  0.56693100  1
  Li  Li18  1  0.00000000  0.27231400  0.06693100  1
  Li  Li19  1  0.00000000  0.00639900  0.54442300  1
  Li  Li20  1  0.14535750  0.65025450  0.98941100  1
  Li  Li21  1  0.14535750  0.34974550  0.48941100  1
  Li  Li22  1  0.23073650  0.41556850  0.02356000  1
  Li  Li23  1  0.23073650  0.58443150  0.52356000  1
  Bi  Bi24  1  0.15177000  0.91339800  0.76461800  1
  Bi  Bi25  1  0.15177000  0.08660200  0.26461800  1
  Bi  Bi26  1  0.31453700  0.68625500  0.76981600  1
  Bi  Bi27  1  0.31453700  0.31374500  0.26981600  1
  Bi  Bi28  1  0.50000000  0.03752400  0.75309900  1
  Bi  Bi29  1  0.50000000  0.96247600  0.25309900  1
  Bi  Bi30  1  0.68546300  0.68625500  0.76981600  1
  Bi  Bi31  1  0.68546300  0.31374500  0.26981600  1
  Bi  Bi32  1  0.84823000  0.08660200  0.26461800  1
  Bi  Bi33  1  0.84823000  0.91339800  0.76461800  1
  Bi  Bi34  1  0.65177000  0.41339800  0.76461800  1
  Bi  Bi35  1  0.65177000  0.58660200  0.26461800  1
  Bi  Bi36  1  0.81453700  0.18625500  0.76981600  1
  Bi  Bi37  1  0.81453700  0.81374500  0.26981600  1
  Bi  Bi38  1  0.00000000  0.53752400  0.75309900  1
  Bi  Bi39  1  0.00000000  0.46247600  0.25309900  1
  Bi  Bi40  1  0.18546300  0.18625500  0.76981600  1
  Bi  Bi41  1  0.18546300  0.81374500  0.26981600  1
  Bi  Bi42  1  0.34823000  0.58660200  0.26461800  1
  Bi  Bi43  1  0.34823000  0.41339800  0.76461800  1
  O  O44  1  0.13654800  0.05576800  0.64085300  1
  O  O45  1  0.13654800  0.94423200  0.14085300  1
  O  O46  1  0.23751650  0.96211850  0.38212500  1
  O  O47  1  0.23751650  0.03788150  0.88212500  1
  O  O48  1  0.78504100  0.79060700  0.90256400  1
  O  O49  1  0.78504100  0.20939300  0.40256400  1
  O  O50  1  0.30205300  0.84409600  0.66423800  1
  O  O51  1  0.30205300  0.15590400  0.16423800  1
  O  O52  1  0.36406650  0.14927350  0.66732100  1
  O  O53  1  0.36406650  0.85072650  0.16732100  1
  O  O54  1  0.50000000  0.63427300  0.14391500  1
  O  O55  1  0.50000000  0.08909100  0.93740600  1
  O  O56  1  0.50000000  0.72222000  0.83960000  1
  O  O57  1  0.50000000  0.36572700  0.64391500  1
  O  O58  1  0.50000000  0.55962800  0.38149300  1
  O  O59  1  0.50000000  0.27778000  0.33960000  1
  O  O60  1  0.50000000  0.91090900  0.43740600  1
  O  O61  1  0.50000000  0.44037200  0.88149300  1
  O  O62  1  0.63593350  0.14927350  0.66732100  1
  O  O63  1  0.63593350  0.85072650  0.16732100  1
  O  O64  1  0.69794700  0.15590400  0.16423800  1
  O  O65  1  0.69794700  0.84409600  0.66423800  1
  O  O66  1  0.21495900  0.79060700  0.90256400  1
  O  O67  1  0.21495900  0.20939300  0.40256400  1
  O  O68  1  0.76248350  0.03788150  0.88212500  1
  O  O69  1  0.76248350  0.96211850  0.38212500  1
  O  O70  1  0.86345200  0.05576800  0.64085300  1
  O  O71  1  0.86345200  0.94423200  0.14085300  1
  O  O72  1  0.63654800  0.55576800  0.64085300  1
  O  O73  1  0.63654800  0.44423200  0.14085300  1
  O  O74  1  0.73751650  0.46211850  0.38212500  1
  O  O75  1  0.73751650  0.53788150  0.88212500  1
  O  O76  1  0.28504100  0.29060700  0.90256400  1
  O  O77  1  0.28504100  0.70939300  0.40256400  1
  O  O78  1  0.80205300  0.34409600  0.66423800  1
  O  O79  1  0.80205300  0.65590400  0.16423800  1
  O  O80  1  0.86406650  0.64927350  0.66732100  1
  O  O81  1  0.86406650  0.35072650  0.16732100  1
  O  O82  1  0.00000000  0.13427300  0.14391500  1
  O  O83  1  0.00000000  0.58909100  0.93740600  1
  O  O84  1  0.00000000  0.22222000  0.83960000  1
  O  O85  1  0.00000000  0.86572700  0.64391500  1
  O  O86  1  0.00000000  0.05962800  0.38149300  1
  O  O87  1  0.00000000  0.77778000  0.33960000  1
  O  O88  1  0.00000000  0.41090900  0.43740600  1
  O  O89  1  0.00000000  0.94037200  0.88149300  1
  O  O90  1  0.13593350  0.64927350  0.66732100  1
  O  O91  1  0.13593350  0.35072650  0.16732100  1
  O  O92  1  0.19794700  0.65590400  0.16423800  1
  O  O93  1  0.19794700  0.34409600  0.66423800  1
  O  O94  1  0.71495900  0.29060700  0.90256400  1
  O  O95  1  0.71495900  0.70939300  0.40256400  1
  O  O96  1  0.26248350  0.53788150  0.88212500  1
  O  O97  1  0.26248350  0.46211850  0.38212500  1
  O  O98  1  0.36345200  0.55576800  0.64085300  1
  O  O99  1  0.36345200  0.44423200  0.14085300  1
