# generated using pymatgen
data_Mn3TeO8
_symmetry_space_group_name_H-M   'P 1'
_cell_length_a   10.39015600
_cell_length_b   5.92632800
_cell_length_c   5.87447983
_cell_angle_alpha   90.00000000
_cell_angle_beta   119.96086135
_cell_angle_gamma   90.00000000
_symmetry_Int_Tables_number   1
_chemical_formula_structural   Mn3TeO8
_chemical_formula_sum   'Mn6 Te2 O16'
_cell_volume   313.38553445
_cell_formula_units_Z   2
loop_
 _symmetry_equiv_pos_site_id
 _symmetry_equiv_pos_as_xyz
  1  'x, y, z'
loop_
 _atom_site_type_symbol
 _atom_site_label
 _atom_site_symmetry_multiplicity
 _atom_site_fract_x
 _atom_site_fract_y
 _atom_site_fract_z
 _atom_site_occupancy
  Mn  Mn0  1  0.25000000  0.75000000  0.00000000  1
  Mn  Mn1  1  0.00000000  0.50000000  0.50000000  1
  Mn  Mn2  1  0.25000000  0.25000000  0.00000000  1
  Mn  Mn3  1  0.75000000  0.25000000  0.00000000  1
  Mn  Mn4  1  0.50000000  0.00000000  0.50000000  1
  Mn  Mn5  1  0.75000000  0.75000000  0.00000000  1
  Te  Te6  1  0.00000000  0.00000000  0.50000000  1
  Te  Te7  1  0.50000000  0.50000000  0.50000000  1
  O  O8  1  0.28803000  0.00000000  0.24026400  1
  O  O9  1  0.48994950  0.74754350  0.70937700  1
  O  O10  1  0.28260900  0.50000000  0.24900500  1
  O  O11  1  0.21197000  0.50000000  0.75973600  1
  O  O12  1  0.48994950  0.25245650  0.70937700  1
  O  O13  1  0.01005050  0.75245650  0.29062300  1
  O  O14  1  0.21739100  0.00000000  0.75099500  1
  O  O15  1  0.01005050  0.24754350  0.29062300  1
  O  O16  1  0.78803000  0.50000000  0.24026400  1
  O  O17  1  0.98994950  0.24754350  0.70937700  1
  O  O18  1  0.78260900  0.00000000  0.24900500  1
  O  O19  1  0.71197000  0.00000000  0.75973600  1
  O  O20  1  0.98994950  0.75245650  0.70937700  1
  O  O21  1  0.51005050  0.25245650  0.29062300  1
  O  O22  1  0.71739100  0.50000000  0.75099500  1
  O  O23  1  0.51005050  0.74754350  0.29062300  1
