# generated using pymatgen
data_Li2V3CuO8
_symmetry_space_group_name_H-M   'P 1'
_cell_length_a   8.60816224
_cell_length_b   8.60816224
_cell_length_c   8.07928510
_cell_angle_alpha   90.00000000
_cell_angle_beta   90.00000000
_cell_angle_gamma   90.00000000
_symmetry_Int_Tables_number   1
_chemical_formula_structural   Li2V3CuO8
_chemical_formula_sum   'Li8 V12 Cu4 O32'
_cell_volume   598.67871922
_cell_formula_units_Z   4
loop_
 _symmetry_equiv_pos_site_id
 _symmetry_equiv_pos_as_xyz
  1  'x, y, z'
loop_
 _atom_site_type_symbol
 _atom_site_label
 _atom_site_symmetry_multiplicity
 _atom_site_fract_x
 _atom_site_fract_y
 _atom_site_fract_z
 _atom_site_occupancy
  Li  Li0  1  0.50326800  0.75588200  0.00251800  1
  Li  Li1  1  0.75042000  0.00413200  0.24846500  1
  Li  Li2  1  0.24958000  0.99586800  0.74846500  1
  Li  Li3  1  0.49673200  0.24411800  0.50251800  1
  Li  Li4  1  0.00413200  0.24958000  0.99846500  1
  Li  Li5  1  0.75588200  0.49673200  0.75251800  1
  Li  Li6  1  0.24411800  0.50326800  0.25251800  1
  Li  Li7  1  0.99586800  0.75042000  0.49846500  1
  V  V8  1  0.63335200  0.87693900  0.62041200  1
  V  V9  1  0.87860200  0.87594000  0.88107400  1
  V  V10  1  0.12406000  0.87860200  0.13107400  1
  V  V11  1  0.87594000  0.12139800  0.63107400  1
  V  V12  1  0.12139800  0.12406000  0.38107400  1
  V  V13  1  0.36664800  0.12306100  0.12041200  1
  V  V14  1  0.87693900  0.36664800  0.37041200  1
  V  V15  1  0.62012500  0.36810700  0.12011100  1
  V  V16  1  0.36810700  0.37987500  0.87011100  1
  V  V17  1  0.63189300  0.62012500  0.37011100  1
  V  V18  1  0.37987500  0.63189300  0.62011100  1
  V  V19  1  0.12306100  0.63335200  0.87041200  1
  Cu  Cu20  1  0.38460700  0.88491700  0.37509200  1
  Cu  Cu21  1  0.61539300  0.11508300  0.87509200  1
  Cu  Cu22  1  0.11508300  0.38460700  0.62509200  1
  Cu  Cu23  1  0.88491700  0.61539300  0.12509200  1
  O  O24  1  0.64200400  0.85095600  0.39253800  1
  O  O25  1  0.40375000  0.86310300  0.62254700  1
  O  O26  1  0.11375300  0.86736900  0.88910600  1
  O  O27  1  0.65013800  0.87843200  0.85962400  1
  O  O28  1  0.89125600  0.88702600  0.10284100  1
  O  O29  1  0.86736900  0.88624700  0.63910600  1
  O  O30  1  0.11297400  0.89125600  0.35284100  1
  O  O31  1  0.35772500  0.89773300  0.12963900  1
  O  O32  1  0.64227500  0.10226700  0.62963900  1
  O  O33  1  0.88702600  0.10874400  0.85284100  1
  O  O34  1  0.13263100  0.11375300  0.13910600  1
  O  O35  1  0.10874400  0.11297400  0.60284100  1
  O  O36  1  0.34986200  0.12156800  0.35962400  1
  O  O37  1  0.88624700  0.13263100  0.38910600  1
  O  O38  1  0.59625000  0.13689700  0.12254700  1
  O  O39  1  0.35799600  0.14904400  0.89253800  1
  O  O40  1  0.87843200  0.34986200  0.60962400  1
  O  O41  1  0.10226700  0.35772500  0.37963900  1
  O  O42  1  0.38708500  0.36755200  0.11291400  1
  O  O43  1  0.85095600  0.35799600  0.14253800  1
  O  O44  1  0.60698100  0.37183800  0.89378500  1
  O  O45  1  0.63244800  0.38708500  0.36291400  1
  O  O46  1  0.37183800  0.39301900  0.64378500  1
  O  O47  1  0.13689700  0.40375000  0.87254700  1
  O  O48  1  0.86310300  0.59625000  0.37254700  1
  O  O49  1  0.62816200  0.60698100  0.14378500  1
  O  O50  1  0.36755200  0.61291500  0.86291400  1
  O  O51  1  0.39301900  0.62816200  0.39378500  1
  O  O52  1  0.14904400  0.64200400  0.64253800  1
  O  O53  1  0.61291500  0.63244800  0.61291400  1
  O  O54  1  0.89773300  0.64227500  0.87963900  1
  O  O55  1  0.12156800  0.65013800  0.10962400  1
