# generated using pymatgen
data_Li3Cr2Fe5O12
_symmetry_space_group_name_H-M   'P 1'
_cell_length_a   5.11367800
_cell_length_b   9.03347800
_cell_length_c   10.03698681
_cell_angle_alpha   90.00000000
_cell_angle_beta   101.18502955
_cell_angle_gamma   90.00000000
_symmetry_Int_Tables_number   1
_chemical_formula_structural   Li3Cr2Fe5O12
_chemical_formula_sum   'Li6 Cr4 Fe10 O24'
_cell_volume   454.84489992
_cell_formula_units_Z   2
loop_
 _symmetry_equiv_pos_site_id
 _symmetry_equiv_pos_as_xyz
  1  'x, y, z'
loop_
 _atom_site_type_symbol
 _atom_site_label
 _atom_site_symmetry_multiplicity
 _atom_site_fract_x
 _atom_site_fract_y
 _atom_site_fract_z
 _atom_site_occupancy
  Li  Li0  1  0.25313250  0.58075150  0.25878000  1
  Li  Li1  1  0.74686750  0.58075150  0.74122000  1
  Li  Li2  1  0.00000000  0.91157300  0.50000000  1
  Li  Li3  1  0.75313250  0.08075150  0.25878000  1
  Li  Li4  1  0.24686750  0.08075150  0.74122000  1
  Li  Li5  1  0.50000000  0.41157300  0.50000000  1
  Cr  Cr6  1  0.50000000  0.74616900  0.50000000  1
  Cr  Cr7  1  0.00000000  0.75133800  0.00000000  1
  Cr  Cr8  1  0.00000000  0.24616900  0.50000000  1
  Cr  Cr9  1  0.50000000  0.25133800  0.00000000  1
  Fe  Fe10  1  0.50000000  0.58084600  0.00000000  1
  Fe  Fe11  1  0.75997700  0.75827100  0.25574600  1
  Fe  Fe12  1  0.24002300  0.75827100  0.74425400  1
  Fe  Fe13  1  0.50000000  0.91879100  0.00000000  1
  Fe  Fe14  1  0.00000000  0.57315500  0.50000000  1
  Fe  Fe15  1  0.00000000  0.08084600  0.00000000  1
  Fe  Fe16  1  0.25997700  0.25827100  0.25574600  1
  Fe  Fe17  1  0.74002300  0.25827100  0.74425400  1
  Fe  Fe18  1  0.00000000  0.41879100  0.00000000  1
  Fe  Fe19  1  0.50000000  0.07315500  0.50000000  1
  O  O20  1  0.61591100  0.74582800  0.88733200  1
  O  O21  1  0.86284050  0.91396550  0.11097600  1
  O  O22  1  0.62750250  0.91236450  0.39741800  1
  O  O23  1  0.38408900  0.74582800  0.11266800  1
  O  O24  1  0.37249750  0.91236450  0.60258200  1
  O  O25  1  0.37998550  0.60979350  0.61430600  1
  O  O26  1  0.13715950  0.91396550  0.88902400  1
  O  O27  1  0.12376950  0.59209150  0.88925500  1
  O  O28  1  0.12276000  0.72875200  0.38724000  1
  O  O29  1  0.62001450  0.60979350  0.38569400  1
  O  O30  1  0.87623050  0.59209150  0.11074500  1
  O  O31  1  0.87724000  0.72875200  0.61276000  1
  O  O32  1  0.11591100  0.24582800  0.88733200  1
  O  O33  1  0.36284050  0.41396550  0.11097600  1
  O  O34  1  0.12750250  0.41236450  0.39741800  1
  O  O35  1  0.88408900  0.24582800  0.11266800  1
  O  O36  1  0.87249750  0.41236450  0.60258200  1
  O  O37  1  0.87998550  0.10979350  0.61430600  1
  O  O38  1  0.63715950  0.41396550  0.88902400  1
  O  O39  1  0.62376950  0.09209150  0.88925500  1
  O  O40  1  0.62276000  0.22875200  0.38724000  1
  O  O41  1  0.12001450  0.10979350  0.38569400  1
  O  O42  1  0.37623050  0.09209150  0.11074500  1
  O  O43  1  0.37724000  0.22875200  0.61276000  1
