# generated using pymatgen
data_Cr2Ni3Sb(PO4)6
_symmetry_space_group_name_H-M   'P 1'
_cell_length_a   8.65326026
_cell_length_b   8.65326026
_cell_length_c   20.32119116
_cell_angle_alpha   90.00000000
_cell_angle_beta   90.00000000
_cell_angle_gamma   120.00000000
_symmetry_Int_Tables_number   1
_chemical_formula_structural   Cr2Ni3Sb(PO4)6
_chemical_formula_sum   'Cr6 Ni9 Sb3 P18 O72'
_cell_volume   1317.76911576
_cell_formula_units_Z   3
loop_
 _symmetry_equiv_pos_site_id
 _symmetry_equiv_pos_as_xyz
  1  'x, y, z'
loop_
 _atom_site_type_symbol
 _atom_site_label
 _atom_site_symmetry_multiplicity
 _atom_site_fract_x
 _atom_site_fract_y
 _atom_site_fract_z
 _atom_site_occupancy
  Cr  Cr0  1  0.33333333  0.66666667  0.66131867  1
  Cr  Cr1  1  0.33333333  0.66666667  0.16685867  1
  Cr  Cr2  1  0.00000000  0.00000000  0.99465200  1
  Cr  Cr3  1  0.00000000  0.00000000  0.50019200  1
  Cr  Cr4  1  0.66666667  0.33333333  0.32798533  1
  Cr  Cr5  1  0.66666667  0.33333333  0.83352533  1
  Ni  Ni6  1  0.33333333  0.66666667  0.52152167  1
  Ni  Ni7  1  0.33333333  0.66666667  0.31045467  1
  Ni  Ni8  1  0.33333333  0.66666667  0.02421067  1
  Ni  Ni9  1  0.00000000  0.00000000  0.85485500  1
  Ni  Ni10  1  0.00000000  0.00000000  0.64378800  1
  Ni  Ni11  1  0.00000000  0.00000000  0.35754400  1
  Ni  Ni12  1  0.66666667  0.33333333  0.18818833  1
  Ni  Ni13  1  0.66666667  0.33333333  0.97712133  1
  Ni  Ni14  1  0.66666667  0.33333333  0.69087733  1
  Sb  Sb15  1  0.33333333  0.66666667  0.81066367  1
  Sb  Sb16  1  0.00000000  0.00000000  0.14399700  1
  Sb  Sb17  1  0.66666667  0.33333333  0.47733033  1
  P  P18  1  0.29957267  0.99681633  0.25208533  1
  P  P19  1  0.37413933  0.34008467  0.08409667  1
  P  P20  1  0.96594533  0.62586067  0.08409667  1
  P  P21  1  0.65991533  0.03405467  0.08409667  1
  P  P22  1  0.00318367  0.30275633  0.25208533  1
  P  P23  1  0.69724367  0.70042733  0.25208533  1
  P  P24  1  0.96623933  0.33014967  0.58541867  1
  P  P25  1  0.04080600  0.67341800  0.41743000  1
  P  P26  1  0.63261200  0.95919400  0.41743000  1
  P  P27  1  0.32658200  0.36738800  0.41743000  1
  P  P28  1  0.66985033  0.63608967  0.58541867  1
  P  P29  1  0.36391033  0.03376067  0.58541867  1
  P  P30  1  0.63290600  0.66348300  0.91875200  1
  P  P31  1  0.70747267  0.00675133  0.75076333  1
  P  P32  1  0.29927867  0.29252733  0.75076333  1
  P  P33  1  0.99324867  0.70072133  0.75076333  1
  P  P34  1  0.33651700  0.96942300  0.91875200  1
  P  P35  1  0.03057700  0.36709400  0.91875200  1
  O  O36  1  0.32476933  0.45634067  0.35430267  1
  O  O37  1  0.13157133  0.67523067  0.35430267  1
  O  O38  1  0.83566300  0.32469000  0.26056300  1
  O  O39  1  0.54365933  0.86842867  0.35430267  1
  O  O40  1  0.99201200  0.19799900  0.18673600  1
  O  O41  1  0.16506033  0.48958967  0.23700967  1
  O  O42  1  0.67531000  0.51097300  0.26056300  1
  O  O43  1  0.51041033  0.67547067  0.23700967  1
  O  O44  1  0.45661933  0.32162167  0.14648467  1
  O  O45  1  0.32452933  0.83493967  0.23700967  1
  O  O46  1  0.17280367  0.16455033  0.07299333  1
  O  O47  1  0.86500233  0.54338067  0.14648467  1
  O  O48  1  0.80200100  0.79401300  0.18673600  1
  O  O49  1  0.48902700  0.16433700  0.26056300  1
  O  O50  1  0.33683333  0.49613067  0.09586267  1
  O  O51  1  0.20598700  0.00798800  0.18673600  1
  O  O52  1  0.15929733  0.66316667  0.09586267  1
  O  O53  1  0.99174667  0.82719633  0.07299333  1
  O  O54  1  0.50386933  0.84070267  0.09586267  1
  O  O55  1  0.67837833  0.13499767  0.14648467  1
  O  O56  1  0.12588000  0.47383700  0.97819000  1
  O  O57  1  0.83544967  0.00825333  0.07299333  1
  O  O58  1  0.52616300  0.65204300  0.97819000  1
  O  O59  1  0.34795700  0.87412000  0.97819000  1
  O  O60  1  0.99143600  0.78967400  0.68763600  1
  O  O61  1  0.79823800  0.00856400  0.68763600  1
  O  O62  1  0.50232967  0.65802333  0.59389633  1
  O  O63  1  0.21032600  0.20176200  0.68763600  1
  O  O64  1  0.65867867  0.53133233  0.52006933  1
  O  O65  1  0.83172700  0.82292300  0.57034300  1
  O  O66  1  0.34197667  0.84430633  0.59389633  1
  O  O67  1  0.17707700  0.00880400  0.57034300  1
  O  O68  1  0.12328600  0.65495500  0.47981800  1
  O  O69  1  0.99119600  0.16827300  0.57034300  1
  O  O70  1  0.83947033  0.49788367  0.40632667  1
  O  O71  1  0.53166900  0.87671400  0.47981800  1
  O  O72  1  0.46866767  0.12734633  0.52006933  1
  O  O73  1  0.15569367  0.49767033  0.59389633  1
  O  O74  1  0.00350000  0.82946400  0.42919600  1
  O  O75  1  0.87265367  0.34132133  0.52006933  1
  O  O76  1  0.82596400  0.99650000  0.42919600  1
  O  O77  1  0.65841333  0.16052967  0.40632667  1
  O  O78  1  0.17053600  0.17403600  0.42919600  1
  O  O79  1  0.34504500  0.46833100  0.47981800  1
  O  O80  1  0.79254667  0.80717033  0.31152333  1
  O  O81  1  0.50211633  0.34158667  0.40632667  1
  O  O82  1  0.19282967  0.98537633  0.31152333  1
  O  O83  1  0.01462367  0.20745333  0.31152333  1
  O  O84  1  0.65810267  0.12300733  0.02096933  1
  O  O85  1  0.46490467  0.34189733  0.02096933  1
  O  O86  1  0.16899633  0.99135667  0.92722967  1
  O  O87  1  0.87699267  0.53509533  0.02096933  1
  O  O88  1  0.32534533  0.86466567  0.85340267  1
  O  O89  1  0.49839367  0.15625633  0.90367633  1
  O  O90  1  0.00864333  0.17763967  0.92722967  1
  O  O91  1  0.84374367  0.34213733  0.90367633  1
  O  O92  1  0.78995267  0.98828833  0.81315133  1
  O  O93  1  0.65786267  0.50160633  0.90367633  1
  O  O94  1  0.50613700  0.83121700  0.73966000  1
  O  O95  1  0.19833567  0.21004733  0.81315133  1
  O  O96  1  0.13533433  0.46067967  0.85340267  1
  O  O97  1  0.82236033  0.83100367  0.92722967  1
  O  O98  1  0.67016667  0.16279733  0.76252933  1
  O  O99  1  0.53932033  0.67465467  0.85340267  1
  O  O100  1  0.49263067  0.32983333  0.76252933  1
  O  O101  1  0.32508000  0.49386300  0.73966000  1
  O  O102  1  0.83720267  0.50736933  0.76252933  1
  O  O103  1  0.01171167  0.80166433  0.81315133  1
  O  O104  1  0.45921333  0.14050367  0.64485667  1
  O  O105  1  0.16878300  0.67492000  0.73966000  1
  O  O106  1  0.85949633  0.31870967  0.64485667  1
  O  O107  1  0.68129033  0.54078667  0.64485667  1
