# generated using pymatgen
data_In15SnO24
_symmetry_space_group_name_H-M   'P 1'
_cell_length_a   14.57836800
_cell_length_b   10.31948200
_cell_length_c   10.32253334
_cell_angle_alpha   90.00000000
_cell_angle_beta   134.91347307
_cell_angle_gamma   90.00000000
_symmetry_Int_Tables_number   1
_chemical_formula_structural   In15SnO24
_chemical_formula_sum   'In30 Sn2 O48'
_cell_volume   1099.74748237
_cell_formula_units_Z   2
loop_
 _symmetry_equiv_pos_site_id
 _symmetry_equiv_pos_as_xyz
  1  'x, y, z'
loop_
 _atom_site_type_symbol
 _atom_site_label
 _atom_site_symmetry_multiplicity
 _atom_site_fract_x
 _atom_site_fract_y
 _atom_site_fract_z
 _atom_site_occupancy
  In  In0  1  0.25059200  0.74934600  0.75048900  1
  In  In1  1  0.96629000  0.74894000  0.21546200  1
  In  In2  1  0.53371000  0.24894000  0.78453800  1
  In  In3  1  0.74960700  0.50075200  0.03361800  1
  In  In4  1  0.25116400  0.99958100  0.53477800  1
  In  In5  1  0.50000000  0.96623500  0.50000000  1
  In  In6  1  0.74940800  0.74934600  0.24951100  1
  In  In7  1  0.24980750  0.24963350  0.75110000  1
  In  In8  1  0.25019250  0.74963350  0.24890000  1
  In  In9  1  0.00000000  0.53356300  0.00000000  1
  In  In10  1  0.24883600  0.49958100  0.46522200  1
  In  In11  1  0.75039300  0.00075200  0.96638200  1
  In  In12  1  0.03311100  0.24986300  0.28287000  1
  In  In13  1  0.46688900  0.74986300  0.71713000  1
  In  In14  1  0.00000000  0.03359600  0.00000000  1
  In  In15  1  0.75059200  0.24934600  0.75048900  1
  In  In16  1  0.46629000  0.24894000  0.21546200  1
  In  In17  1  0.03371000  0.74894000  0.78453800  1
  In  In18  1  0.24960700  0.00075200  0.03361800  1
  In  In19  1  0.75116400  0.49958100  0.53477800  1
  In  In20  1  0.00000000  0.46623500  0.50000000  1
  In  In21  1  0.24940800  0.24934600  0.24951100  1
  In  In22  1  0.74980750  0.74963350  0.75110000  1
  In  In23  1  0.75019250  0.24963350  0.24890000  1
  In  In24  1  0.50000000  0.03356300  0.00000000  1
  In  In25  1  0.74883600  0.99958100  0.46522200  1
  In  In26  1  0.25039300  0.50075200  0.96638200  1
  In  In27  1  0.53311100  0.74986300  0.28287000  1
  In  In28  1  0.96688900  0.24986300  0.71713000  1
  In  In29  1  0.50000000  0.53359600  0.00000000  1
  Sn  Sn30  1  0.00000000  0.96464600  0.50000000  1
  Sn  Sn31  1  0.50000000  0.46464600  0.50000000  1
  O  O32  1  0.34597250  0.10956250  0.97803800  1
  O  O33  1  0.14846250  0.89634750  0.77594700  1
  O  O34  1  0.88701000  0.84808400  0.52152600  1
  O  O35  1  0.88192000  0.15489400  0.02103100  1
  O  O36  1  0.38177500  0.84634800  0.24128800  1
  O  O37  1  0.38012350  0.15504450  0.73969000  1
  O  O38  1  0.15402750  0.60956250  0.02196200  1
  O  O39  1  0.35153750  0.39634750  0.22405300  1
  O  O40  1  0.88974750  0.61912850  0.29392000  1
  O  O41  1  0.60565000  0.61225900  0.51407600  1
  O  O42  1  0.11005350  0.88206950  0.01219500  1
  O  O43  1  0.38832550  0.88236950  0.79278800  1
  O  O44  1  0.39435000  0.61225900  0.48592400  1
  O  O45  1  0.11025250  0.61912850  0.70608000  1
  O  O46  1  0.11167450  0.38236950  0.20721200  1
  O  O47  1  0.38994650  0.38206950  0.98780500  1
  O  O48  1  0.15431150  0.11028950  0.28884400  1
  O  O49  1  0.34562400  0.88646900  0.47799300  1
  O  O50  1  0.61822500  0.84634800  0.75871200  1
  O  O51  1  0.11987650  0.65504450  0.26031000  1
  O  O52  1  0.11299000  0.84808400  0.47847400  1
  O  O53  1  0.61808000  0.65489400  0.97896900  1
  O  O54  1  0.15437600  0.38646900  0.52200700  1
  O  O55  1  0.34568850  0.61028950  0.71115600  1
  O  O56  1  0.84597250  0.60956250  0.97803800  1
  O  O57  1  0.64846250  0.39634750  0.77594700  1
  O  O58  1  0.38701000  0.34808400  0.52152600  1
  O  O59  1  0.38192000  0.65489400  0.02103100  1
  O  O60  1  0.88177500  0.34634800  0.24128800  1
  O  O61  1  0.88012350  0.65504450  0.73969000  1
  O  O62  1  0.65402750  0.10956250  0.02196200  1
  O  O63  1  0.85153750  0.89634750  0.22405300  1
  O  O64  1  0.38974750  0.11912850  0.29392000  1
  O  O65  1  0.10565000  0.11225900  0.51407600  1
  O  O66  1  0.61005350  0.38206950  0.01219500  1
  O  O67  1  0.88832550  0.38236950  0.79278800  1
  O  O68  1  0.89435000  0.11225900  0.48592400  1
  O  O69  1  0.61025250  0.11912850  0.70608000  1
  O  O70  1  0.61167450  0.88236950  0.20721200  1
  O  O71  1  0.88994650  0.88206950  0.98780500  1
  O  O72  1  0.65431150  0.61028950  0.28884400  1
  O  O73  1  0.84562400  0.38646900  0.47799300  1
  O  O74  1  0.11822500  0.34634800  0.75871200  1
  O  O75  1  0.61987650  0.15504450  0.26031000  1
  O  O76  1  0.61299000  0.34808400  0.47847400  1
  O  O77  1  0.11808000  0.15489400  0.97896900  1
  O  O78  1  0.65437600  0.88646900  0.52200700  1
  O  O79  1  0.84568850  0.11028950  0.71115600  1
