# generated using pymatgen
data_Ba6Ti7(Sb3O14)3
_symmetry_space_group_name_H-M   'P 1'
_cell_length_a   9.15361200
_cell_length_b   15.81942800
_cell_length_c   12.12420748
_cell_angle_alpha   90.00000000
_cell_angle_beta   90.17176651
_cell_angle_gamma   90.00000000
_symmetry_Int_Tables_number   1
_chemical_formula_structural   Ba6Ti7(Sb3O14)3
_chemical_formula_sum   'Ba12 Ti14 Sb18 O84'
_cell_volume   1755.63683518
_cell_formula_units_Z   2
loop_
 _symmetry_equiv_pos_site_id
 _symmetry_equiv_pos_as_xyz
  1  'x, y, z'
loop_
 _atom_site_type_symbol
 _atom_site_label
 _atom_site_symmetry_multiplicity
 _atom_site_fract_x
 _atom_site_fract_y
 _atom_site_fract_z
 _atom_site_occupancy
  Ba  Ba0  1  0.59371100  0.00000000  0.24487400  1
  Ba  Ba1  1  0.41168300  0.00000000  0.75077700  1
  Ba  Ba2  1  0.70318650  0.29563250  0.24428000  1
  Ba  Ba3  1  0.79571850  0.20058050  0.75047800  1
  Ba  Ba4  1  0.79571850  0.79941950  0.75047800  1
  Ba  Ba5  1  0.70318650  0.70436750  0.24428000  1
  Ba  Ba6  1  0.09371100  0.50000000  0.24487400  1
  Ba  Ba7  1  0.91168300  0.50000000  0.75077700  1
  Ba  Ba8  1  0.20318650  0.79563250  0.24428000  1
  Ba  Ba9  1  0.29571850  0.70058050  0.75047800  1
  Ba  Ba10  1  0.29571850  0.29941950  0.75047800  1
  Ba  Ba11  1  0.20318650  0.20436750  0.24428000  1
  Ti  Ti12  1  0.75025200  0.00000000  0.91164300  1
  Ti  Ti13  1  0.75176200  0.00000000  0.60530700  1
  Ti  Ti14  1  0.25076100  0.00000000  0.10252500  1
  Ti  Ti15  1  0.12599200  0.87440300  0.60332600  1
  Ti  Ti16  1  0.86963700  0.87796500  0.09698900  1
  Ti  Ti17  1  0.86963700  0.12203500  0.09698900  1
  Ti  Ti18  1  0.12599200  0.12559700  0.60332600  1
  Ti  Ti19  1  0.25025200  0.50000000  0.91164300  1
  Ti  Ti20  1  0.25176200  0.50000000  0.60530700  1
  Ti  Ti21  1  0.75076100  0.50000000  0.10252500  1
  Ti  Ti22  1  0.62599200  0.37440300  0.60332600  1
  Ti  Ti23  1  0.36963700  0.37796500  0.09698900  1
  Ti  Ti24  1  0.36963700  0.62203500  0.09698900  1
  Ti  Ti25  1  0.62599200  0.62559700  0.60332600  1
  Sb  Sb26  1  0.24241800  0.00000000  0.41344200  1
  Sb  Sb27  1  0.49898850  0.83303950  0.99991500  1
  Sb  Sb28  1  0.50057450  0.83356550  0.50017000  1
  Sb  Sb29  1  0.61815950  0.37912350  0.91424200  1
  Sb  Sb30  1  0.37948650  0.37933150  0.41109600  1
  Sb  Sb31  1  0.37948650  0.62066850  0.41109600  1
  Sb  Sb32  1  0.49898850  0.16696050  0.99991500  1
  Sb  Sb33  1  0.50057450  0.16643450  0.50017000  1
  Sb  Sb34  1  0.61815950  0.62087650  0.91424200  1
  Sb  Sb35  1  0.74241800  0.50000000  0.41344200  1
  Sb  Sb36  1  0.99898850  0.33303950  0.99991500  1
  Sb  Sb37  1  0.00057450  0.33356550  0.50017000  1
  Sb  Sb38  1  0.11815950  0.87912350  0.91424200  1
  Sb  Sb39  1  0.87948650  0.87933150  0.41109600  1
  Sb  Sb40  1  0.87948650  0.12066850  0.41109600  1
  Sb  Sb41  1  0.99898850  0.66696050  0.99991500  1
  Sb  Sb42  1  0.00057450  0.66643450  0.50017000  1
  Sb  Sb43  1  0.11815950  0.12087650  0.91424200  1
  O  O44  1  0.79647100  0.00000000  0.07092100  1
  O  O45  1  0.79721300  0.00000000  0.42181800  1
  O  O46  1  0.78269300  0.00000000  0.75243300  1
  O  O47  1  0.60356150  0.91487050  0.60150000  1
  O  O48  1  0.60332200  0.91532300  0.90043300  1
  O  O49  1  0.21443700  0.00000000  0.25007400  1
  O  O50  1  0.67188650  0.84281250  0.10185300  1
  O  O51  1  0.67069850  0.84261250  0.39425000  1
  O  O52  1  0.20011600  0.00000000  0.57697100  1
  O  O53  1  0.20340700  0.00000000  0.92341500  1
  O  O54  1  0.39791850  0.91510250  0.09965600  1
  O  O55  1  0.40143300  0.91428000  0.39416900  1
  O  O56  1  0.32752050  0.84293450  0.89402000  1
  O  O57  1  0.32557500  0.84384800  0.59940800  1
  O  O58  1  0.10334800  0.90017400  0.07646300  1
  O  O59  1  0.10227400  0.89823700  0.42365100  1
  O  O60  1  0.57157050  0.74069350  0.59979700  1
  O  O61  1  0.57336050  0.74446250  0.89277300  1
  O  O62  1  0.60745750  0.39213250  0.75095400  1
  O  O63  1  0.42824550  0.74366150  0.39411800  1
  O  O64  1  0.42714100  0.73952800  0.09562600  1
  O  O65  1  0.40100850  0.40073050  0.57556200  1
  O  O66  1  0.40099050  0.39817450  0.92576600  1
  O  O67  1  0.39356150  0.39240050  0.24739900  1
  O  O68  1  0.57157050  0.25930650  0.59979700  1
  O  O69  1  0.57336050  0.25553750  0.89277300  1
  O  O70  1  0.39356150  0.60759950  0.24739900  1
  O  O71  1  0.42714100  0.26047200  0.09562600  1
  O  O72  1  0.42824550  0.25633850  0.39411800  1
  O  O73  1  0.40100850  0.59926950  0.57556200  1
  O  O74  1  0.40099050  0.60182550  0.92576600  1
  O  O75  1  0.67188650  0.15718750  0.10185300  1
  O  O76  1  0.67069850  0.15738750  0.39425000  1
  O  O77  1  0.60356150  0.08512950  0.60150000  1
  O  O78  1  0.60332200  0.08467700  0.90043300  1
  O  O79  1  0.32557500  0.15615200  0.59940800  1
  O  O80  1  0.32752050  0.15706550  0.89402000  1
  O  O81  1  0.40143300  0.08572000  0.39416900  1
  O  O82  1  0.39791850  0.08489750  0.09965600  1
  O  O83  1  0.60745750  0.60786750  0.75095400  1
  O  O84  1  0.10227400  0.10176300  0.42365100  1
  O  O85  1  0.10334800  0.09982600  0.07646300  1
  O  O86  1  0.29647100  0.50000000  0.07092100  1
  O  O87  1  0.29721300  0.50000000  0.42181800  1
  O  O88  1  0.28269300  0.50000000  0.75243300  1
  O  O89  1  0.10356150  0.41487050  0.60150000  1
  O  O90  1  0.10332200  0.41532300  0.90043300  1
  O  O91  1  0.71443700  0.50000000  0.25007400  1
  O  O92  1  0.17188650  0.34281250  0.10185300  1
  O  O93  1  0.17069850  0.34261250  0.39425000  1
  O  O94  1  0.70011600  0.50000000  0.57697100  1
  O  O95  1  0.70340700  0.50000000  0.92341500  1
  O  O96  1  0.89791850  0.41510250  0.09965600  1
  O  O97  1  0.90143300  0.41428000  0.39416900  1
  O  O98  1  0.82752050  0.34293450  0.89402000  1
  O  O99  1  0.82557500  0.34384800  0.59940800  1
  O  O100  1  0.60334800  0.40017400  0.07646300  1
  O  O101  1  0.60227400  0.39823700  0.42365100  1
  O  O102  1  0.07157050  0.24069350  0.59979700  1
  O  O103  1  0.07336050  0.24446250  0.89277300  1
  O  O104  1  0.10745750  0.89213250  0.75095400  1
  O  O105  1  0.92824550  0.24366150  0.39411800  1
  O  O106  1  0.92714100  0.23952800  0.09562600  1
  O  O107  1  0.90100850  0.90073050  0.57556200  1
  O  O108  1  0.90099050  0.89817450  0.92576600  1
  O  O109  1  0.89356150  0.89240050  0.24739900  1
  O  O110  1  0.07157050  0.75930650  0.59979700  1
  O  O111  1  0.07336050  0.75553750  0.89277300  1
  O  O112  1  0.89356150  0.10759950  0.24739900  1
  O  O113  1  0.92714100  0.76047200  0.09562600  1
  O  O114  1  0.92824550  0.75633850  0.39411800  1
  O  O115  1  0.90100850  0.09926950  0.57556200  1
  O  O116  1  0.90099050  0.10182550  0.92576600  1
  O  O117  1  0.17188650  0.65718750  0.10185300  1
  O  O118  1  0.17069850  0.65738750  0.39425000  1
  O  O119  1  0.10356150  0.58512950  0.60150000  1
  O  O120  1  0.10332200  0.58467700  0.90043300  1
  O  O121  1  0.82557500  0.65615200  0.59940800  1
  O  O122  1  0.82752050  0.65706550  0.89402000  1
  O  O123  1  0.90143300  0.58572000  0.39416900  1
  O  O124  1  0.89791850  0.58489750  0.09965600  1
  O  O125  1  0.10745750  0.10786750  0.75095400  1
  O  O126  1  0.60227400  0.60176300  0.42365100  1
  O  O127  1  0.60334800  0.59982600  0.07646300  1
