# generated using pymatgen
data_Mn6O7F5
_symmetry_space_group_name_H-M   'P 1'
_cell_length_a   4.60070400
_cell_length_b   5.60435200
_cell_length_c   15.38665177
_cell_angle_alpha   90.00000000
_cell_angle_beta   90.16366573
_cell_angle_gamma   90.00000000
_symmetry_Int_Tables_number   1
_chemical_formula_structural   Mn6O7F5
_chemical_formula_sum   'Mn12 O14 F10'
_cell_volume   396.72726707
_cell_formula_units_Z   2
loop_
 _symmetry_equiv_pos_site_id
 _symmetry_equiv_pos_as_xyz
  1  'x, y, z'
loop_
 _atom_site_type_symbol
 _atom_site_label
 _atom_site_symmetry_multiplicity
 _atom_site_fract_x
 _atom_site_fract_y
 _atom_site_fract_z
 _atom_site_occupancy
  Mn  Mn0  1  0.94517300  0.14588000  0.58860900  1
  Mn  Mn1  1  0.98580700  0.83198600  0.75452500  1
  Mn  Mn2  1  0.01406500  0.14786600  0.92087200  1
  Mn  Mn3  1  0.98580700  0.16801400  0.25452500  1
  Mn  Mn4  1  0.01406500  0.85213400  0.42087200  1
  Mn  Mn5  1  0.94517300  0.85412000  0.08860900  1
  Mn  Mn6  1  0.50265200  0.35058300  0.41436600  1
  Mn  Mn7  1  0.51118100  0.35280100  0.07566200  1
  Mn  Mn8  1  0.51054100  0.36252100  0.74564000  1
  Mn  Mn9  1  0.50265200  0.64941700  0.91436600  1
  Mn  Mn10  1  0.51118100  0.64719900  0.57566200  1
  Mn  Mn11  1  0.51054100  0.63747900  0.24564000  1
  O  O12  1  0.76867000  0.10741400  0.69783800  1
  O  O13  1  0.79378600  0.10871700  0.36506100  1
  O  O14  1  0.76089200  0.11425600  0.03118400  1
  O  O15  1  0.79378600  0.89128300  0.86506100  1
  O  O16  1  0.76089200  0.88574400  0.53118400  1
  O  O17  1  0.76867000  0.89258600  0.19783800  1
  O  O18  1  0.71319800  0.60172400  0.68344000  1
  O  O19  1  0.70657500  0.38634200  0.52410500  1
  O  O20  1  0.71319800  0.39827600  0.18344000  1
  O  O21  1  0.70657500  0.61365800  0.02410500  1
  O  O22  1  0.28175900  0.37629500  0.97014500  1
  O  O23  1  0.28591200  0.61660800  0.80531500  1
  O  O24  1  0.28175900  0.62370500  0.47014500  1
  O  O25  1  0.28591200  0.38339200  0.30531500  1
  F  F26  1  0.77245300  0.38457700  0.85808400  1
  F  F27  1  0.77245300  0.61542300  0.35808400  1
  F  F28  1  0.23469400  0.38184200  0.63208900  1
  F  F29  1  0.23469400  0.61815800  0.13208900  1
  F  F30  1  0.26310100  0.12380500  0.80671800  1
  F  F31  1  0.21888500  0.11641100  0.48503400  1
  F  F32  1  0.23065600  0.87096500  0.64131500  1
  F  F33  1  0.21888500  0.88358900  0.98503400  1
  F  F34  1  0.23065600  0.12903500  0.14131500  1
  F  F35  1  0.26310100  0.87619500  0.30671800  1
