# generated using pymatgen
data_Cr(CoO3)2
_symmetry_space_group_name_H-M   'P 1'
_cell_length_a   5.01869200
_cell_length_b   8.51979000
_cell_length_c   9.71932900
_cell_angle_alpha   90.00000000
_cell_angle_beta   90.00000000
_cell_angle_gamma   90.00000000
_symmetry_Int_Tables_number   1
_chemical_formula_structural   Cr(CoO3)2
_chemical_formula_sum   'Cr4 Co8 O24'
_cell_volume   415.58103186
_cell_formula_units_Z   4
loop_
 _symmetry_equiv_pos_site_id
 _symmetry_equiv_pos_as_xyz
  1  'x, y, z'
loop_
 _atom_site_type_symbol
 _atom_site_label
 _atom_site_symmetry_multiplicity
 _atom_site_fract_x
 _atom_site_fract_y
 _atom_site_fract_z
 _atom_site_occupancy
  Cr  Cr0  1  0.00000000  0.00000000  0.00000000  1
  Cr  Cr1  1  0.50000000  0.00000000  0.50000000  1
  Cr  Cr2  1  0.50000000  0.50000000  0.00000000  1
  Cr  Cr3  1  0.00000000  0.50000000  0.50000000  1
  Co  Co4  1  0.50000000  0.33394800  0.50000000  1
  Co  Co5  1  0.50000000  0.16605200  0.00000000  1
  Co  Co6  1  0.50000000  0.83394800  0.00000000  1
  Co  Co7  1  0.50000000  0.66605200  0.50000000  1
  Co  Co8  1  0.00000000  0.83394800  0.50000000  1
  Co  Co9  1  0.00000000  0.66605200  0.00000000  1
  Co  Co10  1  0.00000000  0.33394800  0.00000000  1
  Co  Co11  1  0.00000000  0.16605200  0.50000000  1
  O  O12  1  0.82953200  0.83163000  0.09735800  1
  O  O13  1  0.17046800  0.16837000  0.90264200  1
  O  O14  1  0.32953200  0.16837000  0.40264200  1
  O  O15  1  0.67046800  0.16837000  0.59735800  1
  O  O16  1  0.15760300  0.00000000  0.59841500  1
  O  O17  1  0.34239700  0.00000000  0.09841500  1
  O  O18  1  0.65760300  0.00000000  0.90158500  1
  O  O19  1  0.17046800  0.83163000  0.90264200  1
  O  O20  1  0.84239700  0.00000000  0.40158500  1
  O  O21  1  0.32953200  0.83163000  0.40264200  1
  O  O22  1  0.67046800  0.83163000  0.59735800  1
  O  O23  1  0.82953200  0.16837000  0.09735800  1
  O  O24  1  0.32953200  0.33163000  0.09735800  1
  O  O25  1  0.67046800  0.66837000  0.90264200  1
  O  O26  1  0.82953200  0.66837000  0.40264200  1
  O  O27  1  0.17046800  0.66837000  0.59735800  1
  O  O28  1  0.65760300  0.50000000  0.59841500  1
  O  O29  1  0.84239700  0.50000000  0.09841500  1
  O  O30  1  0.15760300  0.50000000  0.90158500  1
  O  O31  1  0.67046800  0.33163000  0.90264200  1
  O  O32  1  0.34239700  0.50000000  0.40158500  1
  O  O33  1  0.82953200  0.33163000  0.40264200  1
  O  O34  1  0.17046800  0.33163000  0.59735800  1
  O  O35  1  0.32953200  0.66837000  0.09735800  1
