# generated using pymatgen
data_Na4Ni2P(CO4)4
_symmetry_space_group_name_H-M   'P 1'
_cell_length_a   13.78593000
_cell_length_b   13.84462400
_cell_length_c   14.34977200
_cell_angle_alpha   90.00000000
_cell_angle_beta   90.00000000
_cell_angle_gamma   90.00000000
_symmetry_Int_Tables_number   1
_chemical_formula_structural   Na4Ni2P(CO4)4
_chemical_formula_sum   'Na32 Ni16 P8 C32 O128'
_cell_volume   2738.81208252
_cell_formula_units_Z   8
loop_
 _symmetry_equiv_pos_site_id
 _symmetry_equiv_pos_as_xyz
  1  'x, y, z'
loop_
 _atom_site_type_symbol
 _atom_site_label
 _atom_site_symmetry_multiplicity
 _atom_site_fract_x
 _atom_site_fract_y
 _atom_site_fract_z
 _atom_site_occupancy
  Na  Na0  1  0.75000000  0.46313300  0.25000000  1
  Na  Na1  1  0.53771600  0.25000000  0.25000000  1
  Na  Na2  1  0.28771600  0.00000000  0.00000000  1
  Na  Na3  1  0.50000000  0.21313300  0.00000000  1
  Na  Na4  1  0.75000000  0.03686700  0.25000000  1
  Na  Na5  1  0.96228400  0.25000000  0.25000000  1
  Na  Na6  1  0.71228400  0.00000000  0.00000000  1
  Na  Na7  1  0.50000000  0.78686700  0.00000000  1
  Na  Na8  1  0.75000000  0.96313300  0.75000000  1
  Na  Na9  1  0.53771600  0.75000000  0.75000000  1
  Na  Na10  1  0.28771600  0.50000000  0.50000000  1
  Na  Na11  1  0.50000000  0.71313300  0.50000000  1
  Na  Na12  1  0.75000000  0.53686700  0.75000000  1
  Na  Na13  1  0.96228400  0.75000000  0.75000000  1
  Na  Na14  1  0.71228400  0.50000000  0.50000000  1
  Na  Na15  1  0.50000000  0.28686700  0.50000000  1
  Na  Na16  1  0.25000000  0.46313300  0.75000000  1
  Na  Na17  1  0.03771600  0.25000000  0.75000000  1
  Na  Na18  1  0.78771600  0.00000000  0.50000000  1
  Na  Na19  1  0.00000000  0.21313300  0.50000000  1
  Na  Na20  1  0.25000000  0.03686700  0.75000000  1
  Na  Na21  1  0.46228400  0.25000000  0.75000000  1
  Na  Na22  1  0.21228400  0.00000000  0.50000000  1
  Na  Na23  1  0.00000000  0.78686700  0.50000000  1
  Na  Na24  1  0.25000000  0.96313300  0.25000000  1
  Na  Na25  1  0.03771600  0.75000000  0.25000000  1
  Na  Na26  1  0.78771600  0.50000000  0.00000000  1
  Na  Na27  1  0.00000000  0.71313300  0.00000000  1
  Na  Na28  1  0.25000000  0.53686700  0.25000000  1
  Na  Na29  1  0.46228400  0.75000000  0.25000000  1
  Na  Na30  1  0.21228400  0.50000000  0.00000000  1
  Na  Na31  1  0.00000000  0.28686700  0.00000000  1
  Ni  Ni32  1  0.87500000  0.62500000  0.37500000  1
  Ni  Ni33  1  0.62500000  0.87500000  0.37500000  1
  Ni  Ni34  1  0.62500000  0.62500000  0.12500000  1
  Ni  Ni35  1  0.87500000  0.87500000  0.12500000  1
  Ni  Ni36  1  0.87500000  0.12500000  0.87500000  1
  Ni  Ni37  1  0.62500000  0.37500000  0.87500000  1
  Ni  Ni38  1  0.62500000  0.12500000  0.62500000  1
  Ni  Ni39  1  0.87500000  0.37500000  0.62500000  1
  Ni  Ni40  1  0.37500000  0.62500000  0.87500000  1
  Ni  Ni41  1  0.12500000  0.87500000  0.87500000  1
  Ni  Ni42  1  0.12500000  0.62500000  0.62500000  1
  Ni  Ni43  1  0.37500000  0.87500000  0.62500000  1
  Ni  Ni44  1  0.37500000  0.12500000  0.37500000  1
  Ni  Ni45  1  0.12500000  0.37500000  0.37500000  1
  Ni  Ni46  1  0.12500000  0.12500000  0.12500000  1
  Ni  Ni47  1  0.37500000  0.37500000  0.12500000  1
  P  P48  1  0.50000000  0.00000000  0.00000000  1
  P  P49  1  0.75000000  0.25000000  0.25000000  1
  P  P50  1  0.50000000  0.50000000  0.50000000  1
  P  P51  1  0.75000000  0.75000000  0.75000000  1
  P  P52  1  0.00000000  0.00000000  0.50000000  1
  P  P53  1  0.25000000  0.25000000  0.75000000  1
  P  P54  1  0.00000000  0.50000000  0.00000000  1
  P  P55  1  0.25000000  0.75000000  0.25000000  1
  C  C56  1  0.59234200  0.40854600  0.08726600  1
  C  C57  1  0.34234200  0.15854600  0.16273400  1
  C  C58  1  0.90765800  0.40854600  0.41273400  1
  C  C59  1  0.59234200  0.09145400  0.41273400  1
  C  C60  1  0.15765800  0.15854600  0.33726600  1
  C  C61  1  0.84234200  0.84145400  0.33726600  1
  C  C62  1  0.90765800  0.09145400  0.08726600  1
  C  C63  1  0.65765800  0.84145400  0.16273400  1
  C  C64  1  0.59234200  0.90854600  0.58726600  1
  C  C65  1  0.34234200  0.65854600  0.66273400  1
  C  C66  1  0.90765800  0.90854600  0.91273400  1
  C  C67  1  0.59234200  0.59145400  0.91273400  1
  C  C68  1  0.15765800  0.65854600  0.83726600  1
  C  C69  1  0.84234200  0.34145400  0.83726600  1
  C  C70  1  0.90765800  0.59145400  0.58726600  1
  C  C71  1  0.65765800  0.34145400  0.66273400  1
  C  C72  1  0.09234200  0.40854600  0.58726600  1
  C  C73  1  0.84234200  0.15854600  0.66273400  1
  C  C74  1  0.40765800  0.40854600  0.91273400  1
  C  C75  1  0.09234200  0.09145400  0.91273400  1
  C  C76  1  0.65765800  0.15854600  0.83726600  1
  C  C77  1  0.34234200  0.84145400  0.83726600  1
  C  C78  1  0.40765800  0.09145400  0.58726600  1
  C  C79  1  0.15765800  0.84145400  0.66273400  1
  C  C80  1  0.09234200  0.90854600  0.08726600  1
  C  C81  1  0.84234200  0.65854600  0.16273400  1
  C  C82  1  0.40765800  0.90854600  0.41273400  1
  C  C83  1  0.09234200  0.59145400  0.41273400  1
  C  C84  1  0.65765800  0.65854600  0.33726600  1
  C  C85  1  0.34234200  0.34145400  0.33726600  1
  C  C86  1  0.40765800  0.59145400  0.08726600  1
  C  C87  1  0.15765800  0.34145400  0.16273400  1
  O  O88  1  0.10840250  0.97688350  0.14649400  1
  O  O89  1  0.43551300  0.93461100  0.06149600  1
  O  O90  1  0.14817950  0.90063950  0.01577500  1
  O  O91  1  0.39817950  0.15063950  0.23422500  1
  O  O92  1  0.35182050  0.90063950  0.48422500  1
  O  O93  1  0.27365000  0.09676800  0.14833500  1
  O  O94  1  0.06448700  0.93461100  0.43850400  1
  O  O95  1  0.56448700  0.06538900  0.06149600  1
  O  O96  1  0.77365000  0.90323200  0.35166500  1
  O  O97  1  0.64817950  0.09936050  0.48422500  1
  O  O98  1  0.35840250  0.22688350  0.10350600  1
  O  O99  1  0.93551300  0.06538900  0.43850400  1
  O  O100  1  0.39159750  0.97688350  0.35350600  1
  O  O101  1  0.60840250  0.02311650  0.35350600  1
  O  O102  1  0.52365000  0.34676800  0.10166500  1
  O  O103  1  0.22635000  0.09676800  0.35166500  1
  O  O104  1  0.02365000  0.65323200  0.39833500  1
  O  O105  1  0.72635000  0.90323200  0.14833500  1
  O  O106  1  0.14159750  0.22688350  0.39649400  1
  O  O107  1  0.85840250  0.77311650  0.39649400  1
  O  O108  1  0.81448700  0.18461100  0.31149600  1
  O  O109  1  0.89159750  0.02311650  0.14649400  1
  O  O110  1  0.10182050  0.15063950  0.26577500  1
  O  O111  1  0.97635000  0.34676800  0.39833500  1
  O  O112  1  0.68551300  0.18461100  0.18850400  1
  O  O113  1  0.68551300  0.31538900  0.31149600  1
  O  O114  1  0.47635000  0.65323200  0.10166500  1
  O  O115  1  0.89817950  0.84936050  0.26577500  1
  O  O116  1  0.85182050  0.09936050  0.01577500  1
  O  O117  1  0.60182050  0.84936050  0.23422500  1
  O  O118  1  0.81448700  0.31538900  0.18850400  1
  O  O119  1  0.64159750  0.77311650  0.10350600  1
  O  O120  1  0.10840250  0.47688350  0.64649400  1
  O  O121  1  0.43551300  0.43461100  0.56149600  1
  O  O122  1  0.14817950  0.40063950  0.51577500  1
  O  O123  1  0.39817950  0.65063950  0.73422500  1
  O  O124  1  0.35182050  0.40063950  0.98422500  1
  O  O125  1  0.27365000  0.59676800  0.64833500  1
  O  O126  1  0.06448700  0.43461100  0.93850400  1
  O  O127  1  0.56448700  0.56538900  0.56149600  1
  O  O128  1  0.77365000  0.40323200  0.85166500  1
  O  O129  1  0.64817950  0.59936050  0.98422500  1
  O  O130  1  0.35840250  0.72688350  0.60350600  1
  O  O131  1  0.93551300  0.56538900  0.93850400  1
  O  O132  1  0.39159750  0.47688350  0.85350600  1
  O  O133  1  0.60840250  0.52311650  0.85350600  1
  O  O134  1  0.52365000  0.84676800  0.60166500  1
  O  O135  1  0.22635000  0.59676800  0.85166500  1
  O  O136  1  0.02365000  0.15323200  0.89833500  1
  O  O137  1  0.72635000  0.40323200  0.64833500  1
  O  O138  1  0.14159750  0.72688350  0.89649400  1
  O  O139  1  0.85840250  0.27311650  0.89649400  1
  O  O140  1  0.81448700  0.68461100  0.81149600  1
  O  O141  1  0.89159750  0.52311650  0.64649400  1
  O  O142  1  0.10182050  0.65063950  0.76577500  1
  O  O143  1  0.97635000  0.84676800  0.89833500  1
  O  O144  1  0.68551300  0.68461100  0.68850400  1
  O  O145  1  0.68551300  0.81538900  0.81149600  1
  O  O146  1  0.47635000  0.15323200  0.60166500  1
  O  O147  1  0.89817950  0.34936050  0.76577500  1
  O  O148  1  0.85182050  0.59936050  0.51577500  1
  O  O149  1  0.60182050  0.34936050  0.73422500  1
  O  O150  1  0.81448700  0.81538900  0.68850400  1
  O  O151  1  0.64159750  0.27311650  0.60350600  1
  O  O152  1  0.60840250  0.97688350  0.64649400  1
  O  O153  1  0.93551300  0.93461100  0.56149600  1
  O  O154  1  0.64817950  0.90063950  0.51577500  1
  O  O155  1  0.89817950  0.15063950  0.73422500  1
  O  O156  1  0.85182050  0.90063950  0.98422500  1
  O  O157  1  0.77365000  0.09676800  0.64833500  1
  O  O158  1  0.56448700  0.93461100  0.93850400  1
  O  O159  1  0.06448700  0.06538900  0.56149600  1
  O  O160  1  0.27365000  0.90323200  0.85166500  1
  O  O161  1  0.14817950  0.09936050  0.98422500  1
  O  O162  1  0.85840250  0.22688350  0.60350600  1
  O  O163  1  0.43551300  0.06538900  0.93850400  1
  O  O164  1  0.89159750  0.97688350  0.85350600  1
  O  O165  1  0.10840250  0.02311650  0.85350600  1
  O  O166  1  0.02365000  0.34676800  0.60166500  1
  O  O167  1  0.72635000  0.09676800  0.85166500  1
  O  O168  1  0.52365000  0.65323200  0.89833500  1
  O  O169  1  0.22635000  0.90323200  0.64833500  1
  O  O170  1  0.64159750  0.22688350  0.89649400  1
  O  O171  1  0.35840250  0.77311650  0.89649400  1
  O  O172  1  0.31448700  0.18461100  0.81149600  1
  O  O173  1  0.39159750  0.02311650  0.64649400  1
  O  O174  1  0.60182050  0.15063950  0.76577500  1
  O  O175  1  0.47635000  0.34676800  0.89833500  1
  O  O176  1  0.18551300  0.18461100  0.68850400  1
  O  O177  1  0.18551300  0.31538900  0.81149600  1
  O  O178  1  0.97635000  0.65323200  0.60166500  1
  O  O179  1  0.39817950  0.84936050  0.76577500  1
  O  O180  1  0.35182050  0.09936050  0.51577500  1
  O  O181  1  0.10182050  0.84936050  0.73422500  1
  O  O182  1  0.31448700  0.31538900  0.68850400  1
  O  O183  1  0.14159750  0.77311650  0.60350600  1
  O  O184  1  0.60840250  0.47688350  0.14649400  1
  O  O185  1  0.93551300  0.43461100  0.06149600  1
  O  O186  1  0.64817950  0.40063950  0.01577500  1
  O  O187  1  0.89817950  0.65063950  0.23422500  1
  O  O188  1  0.85182050  0.40063950  0.48422500  1
  O  O189  1  0.77365000  0.59676800  0.14833500  1
  O  O190  1  0.56448700  0.43461100  0.43850400  1
  O  O191  1  0.06448700  0.56538900  0.06149600  1
  O  O192  1  0.27365000  0.40323200  0.35166500  1
  O  O193  1  0.14817950  0.59936050  0.48422500  1
  O  O194  1  0.85840250  0.72688350  0.10350600  1
  O  O195  1  0.43551300  0.56538900  0.43850400  1
  O  O196  1  0.89159750  0.47688350  0.35350600  1
  O  O197  1  0.10840250  0.52311650  0.35350600  1
  O  O198  1  0.02365000  0.84676800  0.10166500  1
  O  O199  1  0.72635000  0.59676800  0.35166500  1
  O  O200  1  0.52365000  0.15323200  0.39833500  1
  O  O201  1  0.22635000  0.40323200  0.14833500  1
  O  O202  1  0.64159750  0.72688350  0.39649400  1
  O  O203  1  0.35840250  0.27311650  0.39649400  1
  O  O204  1  0.31448700  0.68461100  0.31149600  1
  O  O205  1  0.39159750  0.52311650  0.14649400  1
  O  O206  1  0.60182050  0.65063950  0.26577500  1
  O  O207  1  0.47635000  0.84676800  0.39833500  1
  O  O208  1  0.18551300  0.68461100  0.18850400  1
  O  O209  1  0.18551300  0.81538900  0.31149600  1
  O  O210  1  0.97635000  0.15323200  0.10166500  1
  O  O211  1  0.39817950  0.34936050  0.26577500  1
  O  O212  1  0.35182050  0.59936050  0.01577500  1
  O  O213  1  0.10182050  0.34936050  0.23422500  1
  O  O214  1  0.31448700  0.81538900  0.18850400  1
  O  O215  1  0.14159750  0.27311650  0.10350600  1
