# generated using pymatgen
data_Li2FeO2F
_symmetry_space_group_name_H-M   'P 1'
_cell_length_a   5.15714400
_cell_length_b   9.05815800
_cell_length_c   5.14627272
_cell_angle_alpha   90.00000000
_cell_angle_beta   108.27517895
_cell_angle_gamma   90.00000000
_symmetry_Int_Tables_number   1
_chemical_formula_structural   Li2FeO2F
_chemical_formula_sum   'Li8 Fe4 O8 F4'
_cell_volume   228.27849762
_cell_formula_units_Z   4
loop_
 _symmetry_equiv_pos_site_id
 _symmetry_equiv_pos_as_xyz
  1  'x, y, z'
loop_
 _atom_site_type_symbol
 _atom_site_label
 _atom_site_symmetry_multiplicity
 _atom_site_fract_x
 _atom_site_fract_y
 _atom_site_fract_z
 _atom_site_occupancy
  Li  Li0  1  0.00000000  0.00000000  0.00000000  1
  Li  Li1  1  0.50000000  0.00000000  0.50000000  1
  Li  Li2  1  0.00000000  0.67334600  0.00000000  1
  Li  Li3  1  0.50000000  0.82665400  0.00000000  1
  Li  Li4  1  0.50000000  0.50000000  0.00000000  1
  Li  Li5  1  0.00000000  0.50000000  0.50000000  1
  Li  Li6  1  0.50000000  0.17334600  0.00000000  1
  Li  Li7  1  0.00000000  0.32665400  0.00000000  1
  Fe  Fe8  1  0.00000000  0.81060200  0.50000000  1
  Fe  Fe9  1  0.50000000  0.68939800  0.50000000  1
  Fe  Fe10  1  0.50000000  0.31060200  0.50000000  1
  Fe  Fe11  1  0.00000000  0.18939800  0.50000000  1
  O  O12  1  0.24205050  0.82823450  0.26733700  1
  O  O13  1  0.75794950  0.82823450  0.73266300  1
  O  O14  1  0.25794950  0.67176550  0.73266300  1
  O  O15  1  0.74205050  0.67176550  0.26733700  1
  O  O16  1  0.74205050  0.32823450  0.26733700  1
  O  O17  1  0.25794950  0.32823450  0.73266300  1
  O  O18  1  0.75794950  0.17176550  0.73266300  1
  O  O19  1  0.24205050  0.17176550  0.26733700  1
  F  F20  1  0.76215400  0.00000000  0.25421800  1
  F  F21  1  0.23784600  0.00000000  0.74578200  1
  F  F22  1  0.26215400  0.50000000  0.25421800  1
  F  F23  1  0.73784600  0.50000000  0.74578200  1
