# generated using pymatgen
data_Li6Cr5O12
_symmetry_space_group_name_H-M   'P 1'
_cell_length_a   5.11482000
_cell_length_b   8.79636300
_cell_length_c   9.83853568
_cell_angle_alpha   90.00000000
_cell_angle_beta   99.62431563
_cell_angle_gamma   90.00000000
_symmetry_Int_Tables_number   1
_chemical_formula_structural   Li6Cr5O12
_chemical_formula_sum   'Li12 Cr10 O24'
_cell_volume   436.42328949
_cell_formula_units_Z   2
loop_
 _symmetry_equiv_pos_site_id
 _symmetry_equiv_pos_as_xyz
  1  'x, y, z'
loop_
 _atom_site_type_symbol
 _atom_site_label
 _atom_site_symmetry_multiplicity
 _atom_site_fract_x
 _atom_site_fract_y
 _atom_site_fract_z
 _atom_site_occupancy
  Li  Li0  1  0.00140900  0.76330400  0.24192200  1
  Li  Li1  1  0.99684700  0.40567500  0.24012900  1
  Li  Li2  1  0.00315300  0.90567500  0.75987100  1
  Li  Li3  1  0.99859100  0.26330400  0.75807800  1
  Li  Li4  1  0.49965100  0.58765600  0.24079600  1
  Li  Li5  1  0.50634800  0.23921800  0.24266000  1
  Li  Li6  1  0.75493700  0.24811200  0.00852900  1
  Li  Li7  1  0.50242200  0.41772900  0.75469600  1
  Li  Li8  1  0.49365200  0.73921800  0.75734000  1
  Li  Li9  1  0.50034900  0.08765600  0.75920400  1
  Li  Li10  1  0.49757800  0.91772900  0.24530400  1
  Li  Li11  1  0.24506300  0.74811200  0.99147100  1
  Cr  Cr12  1  0.75000500  0.41885000  0.50308400  1
  Cr  Cr13  1  0.24999500  0.91885000  0.49691600  1
  Cr  Cr14  1  0.24490500  0.58437400  0.50054000  1
  Cr  Cr15  1  0.24888100  0.24968000  0.49635700  1
  Cr  Cr16  1  0.75111900  0.74968000  0.50364300  1
  Cr  Cr17  1  0.75509500  0.08437400  0.49946000  1
  Cr  Cr18  1  0.23651000  0.07766300  0.00408100  1
  Cr  Cr19  1  0.76349000  0.57766300  0.99591900  1
  Cr  Cr20  1  0.73791400  0.92485200  0.00489200  1
  Cr  Cr21  1  0.26208600  0.42485200  0.99510800  1
  O  O22  1  0.11979900  0.41346500  0.60542100  1
  O  O23  1  0.12224700  0.75526600  0.60829500  1
  O  O24  1  0.12128000  0.08453200  0.60809400  1
  O  O25  1  0.15771300  0.25441100  0.10676000  1
  O  O26  1  0.10891900  0.92990800  0.10920600  1
  O  O27  1  0.87872000  0.58453200  0.39190600  1
  O  O28  1  0.87775300  0.25526600  0.39170500  1
  O  O29  1  0.88020100  0.91346500  0.39457900  1
  O  O30  1  0.11037600  0.56997600  0.11041400  1
  O  O31  1  0.88962400  0.06997600  0.88958600  1
  O  O32  1  0.89108100  0.42990800  0.89079400  1
  O  O33  1  0.84228700  0.75441100  0.89324000  1
  O  O34  1  0.61781700  0.91817700  0.61023800  1
  O  O35  1  0.60723800  0.58410500  0.60813600  1
  O  O36  1  0.61951000  0.25078000  0.61352500  1
  O  O37  1  0.64812600  0.75349200  0.11460400  1
  O  O38  1  0.38049000  0.75078000  0.38647500  1
  O  O39  1  0.39276200  0.08410500  0.39186400  1
  O  O40  1  0.38218300  0.41817700  0.38976200  1
  O  O41  1  0.59585200  0.06777000  0.11187200  1
  O  O42  1  0.61232200  0.43134500  0.10976200  1
  O  O43  1  0.38767800  0.93134500  0.89023800  1
  O  O44  1  0.40414800  0.56777000  0.88812800  1
  O  O45  1  0.35187400  0.25349200  0.88539600  1
