# generated using pymatgen
data_Li2Co(SiO3)2
_symmetry_space_group_name_H-M   'P 1'
_cell_length_a   7.27001303
_cell_length_b   7.30416405
_cell_length_c   19.43710417
_cell_angle_alpha   90.00000000
_cell_angle_beta   90.00000000
_cell_angle_gamma   90.00000000
_symmetry_Int_Tables_number   1
_chemical_formula_structural   Li2Co(SiO3)2
_chemical_formula_sum   'Li16 Co8 Si16 O48'
_cell_volume   1032.13681791
_cell_formula_units_Z   8
loop_
 _symmetry_equiv_pos_site_id
 _symmetry_equiv_pos_as_xyz
  1  'x, y, z'
loop_
 _atom_site_type_symbol
 _atom_site_label
 _atom_site_symmetry_multiplicity
 _atom_site_fract_x
 _atom_site_fract_y
 _atom_site_fract_z
 _atom_site_occupancy
  Li  Li0  1  0.71968950  0.47705550  0.16644650  1
  Li  Li1  1  0.46968950  0.22705550  0.08355350  1
  Li  Li2  1  0.96968950  0.27294450  0.91644650  1
  Li  Li3  1  0.71968950  0.52294450  0.83355350  1
  Li  Li4  1  0.21968950  0.47705550  0.66644650  1
  Li  Li5  1  0.96968950  0.22705550  0.58355350  1
  Li  Li6  1  0.46968950  0.27294450  0.41644650  1
  Li  Li7  1  0.21968950  0.52294450  0.33355350  1
  Li  Li8  1  0.21968950  0.97705550  0.16644650  1
  Li  Li9  1  0.96968950  0.72705550  0.08355350  1
  Li  Li10  1  0.46968950  0.77294450  0.91644650  1
  Li  Li11  1  0.21968950  0.02294450  0.83355350  1
  Li  Li12  1  0.71968950  0.97705550  0.66644650  1
  Li  Li13  1  0.46968950  0.72705550  0.58355350  1
  Li  Li14  1  0.96968950  0.77294450  0.41644650  1
  Li  Li15  1  0.71968950  0.02294450  0.33355350  1
  Co  Co16  1  0.71713450  0.50000000  0.00000000  1
  Co  Co17  1  0.46713450  0.25000000  0.25000000  1
  Co  Co18  1  0.21713450  0.50000000  0.50000000  1
  Co  Co19  1  0.96713450  0.25000000  0.75000000  1
  Co  Co20  1  0.21713450  0.00000000  0.00000000  1
  Co  Co21  1  0.96713450  0.75000000  0.25000000  1
  Co  Co22  1  0.71713450  0.00000000  0.50000000  1
  Co  Co23  1  0.46713450  0.75000000  0.75000000  1
  Si  Si24  1  0.78561550  0.06044725  0.16771575  1
  Si  Si25  1  0.03561550  0.31044725  0.08228425  1
  Si  Si26  1  0.53561550  0.18955275  0.91771575  1
  Si  Si27  1  0.28561550  0.43955275  0.83228425  1
  Si  Si28  1  0.28561550  0.06044725  0.66771575  1
  Si  Si29  1  0.53561550  0.31044725  0.58228425  1
  Si  Si30  1  0.03561550  0.18955275  0.41771575  1
  Si  Si31  1  0.78561550  0.43955275  0.33228425  1
  Si  Si32  1  0.28561550  0.56044725  0.16771575  1
  Si  Si33  1  0.53561550  0.81044725  0.08228425  1
  Si  Si34  1  0.03561550  0.68955275  0.91771575  1
  Si  Si35  1  0.78561550  0.93955275  0.83228425  1
  Si  Si36  1  0.78561550  0.56044725  0.66771575  1
  Si  Si37  1  0.03561550  0.81044725  0.58228425  1
  Si  Si38  1  0.53561550  0.68955275  0.41771575  1
  Si  Si39  1  0.28561550  0.93955275  0.33228425  1
  O  O40  1  0.82195800  0.97517200  0.24321900  1
  O  O41  1  0.07195800  0.22517200  0.00678100  1
  O  O42  1  0.57195800  0.27482800  0.99321900  1
  O  O43  1  0.32195800  0.52482800  0.75678100  1
  O  O44  1  0.62893500  0.22055950  0.16608050  1
  O  O45  1  0.87893500  0.47055950  0.08391950  1
  O  O46  1  0.87893500  0.52944050  0.91608050  1
  O  O47  1  0.12893500  0.27944050  0.83391950  1
  O  O48  1  0.73469900  0.88996400  0.11295850  1
  O  O49  1  0.98469900  0.13996400  0.13704150  1
  O  O50  1  0.48469900  0.36003600  0.86295850  1
  O  O51  1  0.73469900  0.11003600  0.88704150  1
  O  O52  1  0.32195800  0.97517200  0.74321900  1
  O  O53  1  0.57195800  0.22517200  0.50678100  1
  O  O54  1  0.07195800  0.27482800  0.49321900  1
  O  O55  1  0.82195800  0.52482800  0.25678100  1
  O  O56  1  0.12893500  0.22055950  0.66608050  1
  O  O57  1  0.37893500  0.47055950  0.58391950  1
  O  O58  1  0.37893500  0.52944050  0.41608050  1
  O  O59  1  0.62893500  0.27944050  0.33391950  1
  O  O60  1  0.23469900  0.88996400  0.61295850  1
  O  O61  1  0.48469900  0.13996400  0.63704150  1
  O  O62  1  0.98469900  0.36003600  0.36295850  1
  O  O63  1  0.23469900  0.11003600  0.38704150  1
  O  O64  1  0.32195800  0.47517200  0.24321900  1
  O  O65  1  0.57195800  0.72517200  0.00678100  1
  O  O66  1  0.07195800  0.77482800  0.99321900  1
  O  O67  1  0.82195800  0.02482800  0.75678100  1
  O  O68  1  0.12893500  0.72055950  0.16608050  1
  O  O69  1  0.37893500  0.97055950  0.08391950  1
  O  O70  1  0.37893500  0.02944050  0.91608050  1
  O  O71  1  0.62893500  0.77944050  0.83391950  1
  O  O72  1  0.23469900  0.38996400  0.11295850  1
  O  O73  1  0.48469900  0.63996400  0.13704150  1
  O  O74  1  0.98469900  0.86003600  0.86295850  1
  O  O75  1  0.23469900  0.61003600  0.88704150  1
  O  O76  1  0.82195800  0.47517200  0.74321900  1
  O  O77  1  0.07195800  0.72517200  0.50678100  1
  O  O78  1  0.57195800  0.77482800  0.49321900  1
  O  O79  1  0.32195800  0.02482800  0.25678100  1
  O  O80  1  0.62893500  0.72055950  0.66608050  1
  O  O81  1  0.87893500  0.97055950  0.58391950  1
  O  O82  1  0.87893500  0.02944050  0.41608050  1
  O  O83  1  0.12893500  0.77944050  0.33391950  1
  O  O84  1  0.73469900  0.38996400  0.61295850  1
  O  O85  1  0.98469900  0.63996400  0.63704150  1
  O  O86  1  0.48469900  0.86003600  0.36295850  1
  O  O87  1  0.73469900  0.61003600  0.38704150  1
