# generated using pymatgen
data_Li3VOF5
_symmetry_space_group_name_H-M   'P 1'
_cell_length_a   6.21940042
_cell_length_b   6.42145044
_cell_length_c   6.42351249
_cell_angle_alpha   90.00000000
_cell_angle_beta   90.00000000
_cell_angle_gamma   90.00000000
_symmetry_Int_Tables_number   1
_chemical_formula_structural   Li3VOF5
_chemical_formula_sum   'Li6 V2 O2 F10'
_cell_volume   256.53948974
_cell_formula_units_Z   2
loop_
 _symmetry_equiv_pos_site_id
 _symmetry_equiv_pos_as_xyz
  1  'x, y, z'
loop_
 _atom_site_type_symbol
 _atom_site_label
 _atom_site_symmetry_multiplicity
 _atom_site_fract_x
 _atom_site_fract_y
 _atom_site_fract_z
 _atom_site_occupancy
  Li  Li0  1  0.83808825  0.00000000  0.50000000  1
  Li  Li1  1  0.94909550  0.50000000  0.76464650  1
  Li  Li2  1  0.44909550  0.00000000  0.73535350  1
  Li  Li3  1  0.33808825  0.50000000  0.00000000  1
  Li  Li4  1  0.44909550  0.00000000  0.26464650  1
  Li  Li5  1  0.94909550  0.50000000  0.23535350  1
  V  V6  1  0.50127650  0.50000000  0.50000000  1
  V  V7  1  0.00127650  0.00000000  0.00000000  1
  O  O8  1  0.23467975  0.50000000  0.50000000  1
  O  O9  1  0.73467975  0.00000000  0.00000000  1
  F  F10  1  0.32841500  0.00000000  0.00000000  1
  F  F11  1  0.55208975  0.81058125  0.50000000  1
  F  F12  1  0.55208975  0.18941875  0.50000000  1
  F  F13  1  0.55486775  0.50000000  0.79764675  1
  F  F14  1  0.55486775  0.50000000  0.20235325  1
  F  F15  1  0.82841500  0.50000000  0.50000000  1
  F  F16  1  0.05208975  0.31058125  0.00000000  1
  F  F17  1  0.05208975  0.68941875  0.00000000  1
  F  F18  1  0.05486775  0.00000000  0.29764675  1
  F  F19  1  0.05486775  0.00000000  0.70235325  1
