# generated using pymatgen
data_AgRuO4
_symmetry_space_group_name_H-M   'P 1'
_cell_length_a   5.28116600
_cell_length_b   5.28116600
_cell_length_c   11.93535400
_cell_angle_alpha   90.00000000
_cell_angle_beta   90.00000000
_cell_angle_gamma   90.00000000
_symmetry_Int_Tables_number   1
_chemical_formula_structural   AgRuO4
_chemical_formula_sum   'Ag4 Ru4 O16'
_cell_volume   332.88554872
_cell_formula_units_Z   4
loop_
 _symmetry_equiv_pos_site_id
 _symmetry_equiv_pos_as_xyz
  1  'x, y, z'
loop_
 _atom_site_type_symbol
 _atom_site_label
 _atom_site_symmetry_multiplicity
 _atom_site_fract_x
 _atom_site_fract_y
 _atom_site_fract_z
 _atom_site_occupancy
  Ag  Ag0  1  0.50000000  0.50000000  0.00000000  1
  Ag  Ag1  1  0.50000000  0.00000000  0.25000000  1
  Ag  Ag2  1  0.00000000  0.00000000  0.50000000  1
  Ag  Ag3  1  0.00000000  0.50000000  0.75000000  1
  Ru  Ru4  1  0.00000000  0.00000000  0.00000000  1
  Ru  Ru5  1  0.00000000  0.50000000  0.25000000  1
  Ru  Ru6  1  0.50000000  0.50000000  0.50000000  1
  Ru  Ru7  1  0.50000000  0.00000000  0.75000000  1
  O  O8  1  0.64880150  0.26134450  0.41931750  1
  O  O9  1  0.14880150  0.26134450  0.33068250  1
  O  O10  1  0.76134450  0.35119850  0.16931750  1
  O  O11  1  0.76134450  0.85119850  0.08068250  1
  O  O12  1  0.23865550  0.14880150  0.08068250  1
  O  O13  1  0.23865550  0.64880150  0.16931750  1
  O  O14  1  0.85119850  0.73865550  0.33068250  1
  O  O15  1  0.35119850  0.73865550  0.41931750  1
  O  O16  1  0.14880150  0.76134450  0.91931750  1
  O  O17  1  0.64880150  0.76134450  0.83068250  1
  O  O18  1  0.26134450  0.85119850  0.66931750  1
  O  O19  1  0.26134450  0.35119850  0.58068250  1
  O  O20  1  0.73865550  0.64880150  0.58068250  1
  O  O21  1  0.73865550  0.14880150  0.66931750  1
  O  O22  1  0.35119850  0.23865550  0.83068250  1
  O  O23  1  0.85119850  0.23865550  0.91931750  1
