# generated using pymatgen
data_Mn(SbO3)2
_symmetry_space_group_name_H-M   'P 1'
_cell_length_a   4.79585619
_cell_length_b   4.79585619
_cell_length_c   9.54234500
_cell_angle_alpha   90.00000000
_cell_angle_beta   90.00000000
_cell_angle_gamma   90.00000000
_symmetry_Int_Tables_number   1
_chemical_formula_structural   Mn(SbO3)2
_chemical_formula_sum   'Mn2 Sb4 O12'
_cell_volume   219.47619293
_cell_formula_units_Z   2
loop_
 _symmetry_equiv_pos_site_id
 _symmetry_equiv_pos_as_xyz
  1  'x, y, z'
loop_
 _atom_site_type_symbol
 _atom_site_label
 _atom_site_symmetry_multiplicity
 _atom_site_fract_x
 _atom_site_fract_y
 _atom_site_fract_z
 _atom_site_occupancy
  Mn  Mn0  1  0.50000000  0.50000000  0.50000000  1
  Mn  Mn1  1  0.00000000  0.00000000  0.00000000  1
  Sb  Sb2  1  0.50000000  0.50000000  0.16757950  1
  Sb  Sb3  1  0.50000000  0.50000000  0.83242050  1
  Sb  Sb4  1  0.00000000  0.00000000  0.33242050  1
  Sb  Sb5  1  0.00000000  0.00000000  0.66757950  1
  O  O6  1  0.68510100  0.31489900  0.00000000  1
  O  O7  1  0.81489900  0.81489900  0.50000000  1
  O  O8  1  0.18510100  0.18510100  0.50000000  1
  O  O9  1  0.31489900  0.68510100  0.00000000  1
  O  O10  1  0.70044125  0.29955875  0.32407550  1
  O  O11  1  0.70044125  0.29955875  0.67592450  1
  O  O12  1  0.79955875  0.79955875  0.17592450  1
  O  O13  1  0.79955875  0.79955875  0.82407550  1
  O  O14  1  0.20044125  0.20044125  0.17592450  1
  O  O15  1  0.20044125  0.20044125  0.82407550  1
  O  O16  1  0.29955875  0.70044125  0.32407550  1
  O  O17  1  0.29955875  0.70044125  0.67592450  1
