# generated using pymatgen
data_Fe3CoCu2(PO4)6
_symmetry_space_group_name_H-M   'P 1'
_cell_length_a   8.52240861
_cell_length_b   8.52240861
_cell_length_c   20.71368431
_cell_angle_alpha   90.00000000
_cell_angle_beta   90.00000000
_cell_angle_gamma   120.00000000
_symmetry_Int_Tables_number   1
_chemical_formula_structural   Fe3CoCu2(PO4)6
_chemical_formula_sum   'Fe9 Co3 Cu6 P18 O72'
_cell_volume   1302.90481954
_cell_formula_units_Z   3
loop_
 _symmetry_equiv_pos_site_id
 _symmetry_equiv_pos_as_xyz
  1  'x, y, z'
loop_
 _atom_site_type_symbol
 _atom_site_label
 _atom_site_symmetry_multiplicity
 _atom_site_fract_x
 _atom_site_fract_y
 _atom_site_fract_z
 _atom_site_occupancy
  Fe  Fe0  1  0.33333333  0.66666667  0.02206433  1
  Fe  Fe1  1  0.33333333  0.66666667  0.81015833  1
  Fe  Fe2  1  0.33333333  0.66666667  0.31048867  1
  Fe  Fe3  1  0.00000000  0.00000000  0.35539767  1
  Fe  Fe4  1  0.00000000  0.00000000  0.14349167  1
  Fe  Fe5  1  0.00000000  0.00000000  0.64382200  1
  Fe  Fe6  1  0.66666667  0.33333333  0.68873100  1
  Fe  Fe7  1  0.66666667  0.33333333  0.47682500  1
  Fe  Fe8  1  0.66666667  0.33333333  0.97715533  1
  Co  Co9  1  0.33333333  0.66666667  0.52583867  1
  Co  Co10  1  0.00000000  0.00000000  0.85917200  1
  Co  Co11  1  0.66666667  0.33333333  0.19250533  1
  Cu  Cu12  1  0.33333333  0.66666667  0.66611033  1
  Cu  Cu13  1  0.33333333  0.66666667  0.16646900  1
  Cu  Cu14  1  0.00000000  0.00000000  0.99944367  1
  Cu  Cu15  1  0.00000000  0.00000000  0.49980233  1
  Cu  Cu16  1  0.66666667  0.33333333  0.33277700  1
  Cu  Cu17  1  0.66666667  0.33333333  0.83313567  1
  P  P18  1  0.95565767  0.62168533  0.08477333  1
  P  P19  1  0.37831467  0.33397233  0.08477333  1
  P  P20  1  0.66602767  0.04434233  0.08477333  1
  P  P21  1  0.99744600  0.29415400  0.24851400  1
  P  P22  1  0.29670800  0.00255400  0.24851400  1
  P  P23  1  0.70584600  0.70329200  0.24851400  1
  P  P24  1  0.62232433  0.95501867  0.41810667  1
  P  P25  1  0.04498133  0.66730567  0.41810667  1
  P  P26  1  0.33269433  0.37767567  0.41810667  1
  P  P27  1  0.66411267  0.62748733  0.58184733  1
  P  P28  1  0.96337467  0.33588733  0.58184733  1
  P  P29  1  0.37251267  0.03662533  0.58184733  1
  P  P30  1  0.28899100  0.28835200  0.75144000  1
  P  P31  1  0.71164800  0.00063900  0.75144000  1
  P  P32  1  0.99936100  0.71100900  0.75144000  1
  P  P33  1  0.33077933  0.96082067  0.91518067  1
  P  P34  1  0.63004133  0.66922067  0.91518067  1
  P  P35  1  0.03917933  0.36995867  0.91518067  1
  O  O36  1  0.13873233  0.66774167  0.35591267  1
  O  O37  1  0.33225833  0.47099067  0.35591267  1
  O  O38  1  0.52900933  0.86126767  0.35591267  1
  O  O39  1  0.97665700  0.81377700  0.07772100  1
  O  O40  1  0.86005833  0.52167567  0.14641667  1
  O  O41  1  0.14888233  0.64478067  0.09101567  1
  O  O42  1  0.18622300  0.16288000  0.07772100  1
  O  O43  1  0.35521933  0.50410167  0.09101567  1
  O  O44  1  0.99948233  0.19707167  0.18781667  1
  O  O45  1  0.49589833  0.85111767  0.09101567  1
  O  O46  1  0.82329433  0.31247067  0.25438467  1
  O  O47  1  0.19758933  0.00051767  0.18781667  1
  O  O48  1  0.47832433  0.33838267  0.14641667  1
  O  O49  1  0.83712000  0.02334300  0.07772100  1
  O  O50  1  0.16744700  0.48634100  0.24268100  1
  O  O51  1  0.66161733  0.13994167  0.14641667  1
  O  O52  1  0.31889400  0.83255300  0.24268100  1
  O  O53  1  0.48917633  0.17670567  0.25438467  1
  O  O54  1  0.51365900  0.68110600  0.24268100  1
  O  O55  1  0.80292833  0.80241067  0.18781667  1
  O  O56  1  0.68752933  0.51082367  0.25438467  1
  O  O57  1  0.13619700  0.46458800  0.97705900  1
  O  O58  1  0.32839100  0.86380300  0.97705900  1
  O  O59  1  0.53541200  0.67160900  0.97705900  1
  O  O60  1  0.80539900  0.00107500  0.68924600  1
  O  O61  1  0.99892500  0.80432400  0.68924600  1
  O  O62  1  0.19567600  0.19460100  0.68924600  1
  O  O63  1  0.64332367  0.14711033  0.41105433  1
  O  O64  1  0.52672500  0.85500900  0.47975000  1
  O  O65  1  0.81554900  0.97811400  0.42434900  1
  O  O66  1  0.85288967  0.49621333  0.41105433  1
  O  O67  1  0.02188600  0.83743500  0.42434900  1
  O  O68  1  0.66614900  0.53040500  0.52115000  1
  O  O69  1  0.16256500  0.18445100  0.42434900  1
  O  O70  1  0.48996100  0.64580400  0.58771800  1
  O  O71  1  0.86425600  0.33385100  0.52115000  1
  O  O72  1  0.14499100  0.67171600  0.47975000  1
  O  O73  1  0.50378667  0.35667633  0.41105433  1
  O  O74  1  0.83411367  0.81967433  0.57601433  1
  O  O75  1  0.32828400  0.47327500  0.47975000  1
  O  O76  1  0.98556067  0.16588633  0.57601433  1
  O  O77  1  0.15584300  0.51003900  0.58771800  1
  O  O78  1  0.18032567  0.01443933  0.57601433  1
  O  O79  1  0.46959500  0.13574400  0.52115000  1
  O  O80  1  0.35419600  0.84415700  0.58771800  1
  O  O81  1  0.80286367  0.79792133  0.31039233  1
  O  O82  1  0.99505767  0.19713633  0.31039233  1
  O  O83  1  0.20207867  0.00494233  0.31039233  1
  O  O84  1  0.47206567  0.33440833  0.02257933  1
  O  O85  1  0.66559167  0.13765733  0.02257933  1
  O  O86  1  0.86234267  0.52793433  0.02257933  1
  O  O87  1  0.30999033  0.48044367  0.74438767  1
  O  O88  1  0.19339167  0.18834233  0.81308333  1
  O  O89  1  0.48221567  0.31144733  0.75768233  1
  O  O90  1  0.51955633  0.82954667  0.74438767  1
  O  O91  1  0.68855267  0.17076833  0.75768233  1
  O  O92  1  0.33281567  0.86373833  0.85448333  1
  O  O93  1  0.82923167  0.51778433  0.75768233  1
  O  O94  1  0.15662767  0.97913733  0.92105133  1
  O  O95  1  0.53092267  0.66718433  0.85448333  1
  O  O96  1  0.81165767  0.00504933  0.81308333  1
  O  O97  1  0.17045333  0.69000967  0.74438767  1
  O  O98  1  0.50078033  0.15300767  0.90934767  1
  O  O99  1  0.99495067  0.80660833  0.81308333  1
  O  O100  1  0.65222733  0.49921967  0.90934767  1
  O  O101  1  0.82250967  0.84337233  0.92105133  1
  O  O102  1  0.84699233  0.34777267  0.90934767  1
  O  O103  1  0.13626167  0.46907733  0.85448333  1
  O  O104  1  0.02086267  0.17749033  0.92105133  1
  O  O105  1  0.46953033  0.13125467  0.64372567  1
  O  O106  1  0.66172433  0.53046967  0.64372567  1
  O  O107  1  0.86874533  0.33827567  0.64372567  1
