# generated using pymatgen
data_Li7Mn5O12
_symmetry_space_group_name_H-M   'P 1'
_cell_length_a   5.15310200
_cell_length_b   8.81034200
_cell_length_c   9.66789204
_cell_angle_alpha   90.00000000
_cell_angle_beta   99.80216473
_cell_angle_gamma   90.00000000
_symmetry_Int_Tables_number   1
_chemical_formula_structural   Li7Mn5O12
_chemical_formula_sum   'Li14 Mn10 O24'
_cell_volume   432.52030713
_cell_formula_units_Z   2
loop_
 _symmetry_equiv_pos_site_id
 _symmetry_equiv_pos_as_xyz
  1  'x, y, z'
loop_
 _atom_site_type_symbol
 _atom_site_label
 _atom_site_symmetry_multiplicity
 _atom_site_fract_x
 _atom_site_fract_y
 _atom_site_fract_z
 _atom_site_occupancy
  Li  Li0  1  0.50000000  0.75728800  0.50000000  1
  Li  Li1  1  0.26198950  0.91343850  0.26451500  1
  Li  Li2  1  0.23694650  0.08461650  0.73444000  1
  Li  Li3  1  0.73801050  0.91343850  0.73548500  1
  Li  Li4  1  0.76305350  0.08461650  0.26556000  1
  Li  Li5  1  0.50000000  0.24406000  0.00000000  1
  Li  Li6  1  0.50000000  0.42114100  0.50000000  1
  Li  Li7  1  0.00000000  0.25728800  0.50000000  1
  Li  Li8  1  0.76198950  0.41343850  0.26451500  1
  Li  Li9  1  0.73694650  0.58461650  0.73444000  1
  Li  Li10  1  0.23801050  0.41343850  0.73548500  1
  Li  Li11  1  0.26305350  0.58461650  0.26556000  1
  Li  Li12  1  0.00000000  0.74406000  0.00000000  1
  Li  Li13  1  0.00000000  0.92114100  0.50000000  1
  Mn  Mn14  1  0.50000000  0.57308100  0.00000000  1
  Mn  Mn15  1  0.24828900  0.75632200  0.74007800  1
  Mn  Mn16  1  0.75171100  0.75632200  0.25992200  1
  Mn  Mn17  1  0.50000000  0.91455100  0.00000000  1
  Mn  Mn18  1  0.50000000  0.08060000  0.50000000  1
  Mn  Mn19  1  0.00000000  0.07308100  0.00000000  1
  Mn  Mn20  1  0.74828900  0.25632200  0.74007800  1
  Mn  Mn21  1  0.25171100  0.25632200  0.25992200  1
  Mn  Mn22  1  0.00000000  0.41455100  0.00000000  1
  Mn  Mn23  1  0.00000000  0.58060000  0.50000000  1
  O  O24  1  0.84466650  0.09590550  0.62278200  1
  O  O25  1  0.15533350  0.09590550  0.37721800  1
  O  O26  1  0.40786700  0.75195800  0.12640500  1
  O  O27  1  0.59213300  0.75195800  0.87359500  1
  O  O28  1  0.37689000  0.92722700  0.61693100  1
  O  O29  1  0.62311000  0.92722700  0.38306900  1
  O  O30  1  0.35049750  0.07054650  0.10738600  1
  O  O31  1  0.64950250  0.07054650  0.89261400  1
  O  O32  1  0.40616500  0.24400400  0.63072500  1
  O  O33  1  0.59383500  0.24400400  0.36927500  1
  O  O34  1  0.84500850  0.91062050  0.12125100  1
  O  O35  1  0.15499150  0.91062050  0.87874900  1
  O  O36  1  0.34466650  0.59590550  0.62278200  1
  O  O37  1  0.65533350  0.59590550  0.37721800  1
  O  O38  1  0.90786700  0.25195800  0.12640500  1
  O  O39  1  0.09213300  0.25195800  0.87359500  1
  O  O40  1  0.87689000  0.42722700  0.61693100  1
  O  O41  1  0.12311000  0.42722700  0.38306900  1
  O  O42  1  0.85049750  0.57054650  0.10738600  1
  O  O43  1  0.14950250  0.57054650  0.89261400  1
  O  O44  1  0.90616500  0.74400400  0.63072500  1
  O  O45  1  0.09383500  0.74400400  0.36927500  1
  O  O46  1  0.34500850  0.41062050  0.12125100  1
  O  O47  1  0.65499150  0.41062050  0.87874900  1
