# generated using pymatgen
data_Ti3Fe3(SbO8)2
_symmetry_space_group_name_H-M   'P 1'
_cell_length_a   10.44917600
_cell_length_b   5.99449200
_cell_length_c   9.36533972
_cell_angle_alpha   90.00000000
_cell_angle_beta   90.45762645
_cell_angle_gamma   90.00000000
_symmetry_Int_Tables_number   1
_chemical_formula_structural   Ti3Fe3(SbO8)2
_chemical_formula_sum   'Ti6 Fe6 Sb4 O32'
_cell_volume   586.60277379
_cell_formula_units_Z   2
loop_
 _symmetry_equiv_pos_site_id
 _symmetry_equiv_pos_as_xyz
  1  'x, y, z'
loop_
 _atom_site_type_symbol
 _atom_site_label
 _atom_site_symmetry_multiplicity
 _atom_site_fract_x
 _atom_site_fract_y
 _atom_site_fract_z
 _atom_site_occupancy
  Ti  Ti0  1  0.58446800  0.24802400  0.21041100  1
  Ti  Ti1  1  0.58446800  0.75197600  0.21041100  1
  Ti  Ti2  1  0.66442900  0.50000000  0.71374600  1
  Ti  Ti3  1  0.08446800  0.74802400  0.21041100  1
  Ti  Ti4  1  0.08446800  0.25197600  0.21041100  1
  Ti  Ti5  1  0.16442900  0.00000000  0.71374600  1
  Fe  Fe6  1  0.83102600  0.00000000  0.20883600  1
  Fe  Fe7  1  0.91509850  0.74659750  0.70754100  1
  Fe  Fe8  1  0.91509850  0.25340250  0.70754100  1
  Fe  Fe9  1  0.33102600  0.50000000  0.20883600  1
  Fe  Fe10  1  0.41509850  0.24659750  0.70754100  1
  Fe  Fe11  1  0.41509850  0.75340250  0.70754100  1
  Sb  Sb12  1  0.66912000  0.00000000  0.48961300  1
  Sb  Sb13  1  0.83533700  0.50000000  0.98729300  1
  Sb  Sb14  1  0.16912000  0.50000000  0.48961300  1
  Sb  Sb15  1  0.33533700  0.00000000  0.98729300  1
  O  O16  1  0.59033150  0.24453550  0.60397700  1
  O  O17  1  0.52398100  0.00000000  0.33951100  1
  O  O18  1  0.65907700  0.00000000  0.10338900  1
  O  O19  1  0.50392000  0.50000000  0.30241500  1
  O  O20  1  0.50038700  0.50000000  0.80285000  1
  O  O21  1  0.59033150  0.75546450  0.60397700  1
  O  O22  1  0.73486650  0.21880750  0.34042000  1
  O  O23  1  0.73486650  0.78119250  0.34042000  1
  O  O24  1  0.67430100  0.50000000  0.10651500  1
  O  O25  1  0.83169500  0.00000000  0.60020900  1
  O  O26  1  0.75689800  0.71373800  0.84172000  1
  O  O27  1  0.75689800  0.28626200  0.84172000  1
  O  O28  1  0.83100600  0.50000000  0.60429900  1
  O  O29  1  0.91673900  0.74118600  0.10390900  1
  O  O30  1  0.97769000  0.50000000  0.84102700  1
  O  O31  1  0.91673900  0.25881400  0.10390900  1
  O  O32  1  0.09033150  0.74453550  0.60397700  1
  O  O33  1  0.02398100  0.50000000  0.33951100  1
  O  O34  1  0.15907700  0.50000000  0.10338900  1
  O  O35  1  0.00392000  0.00000000  0.30241500  1
  O  O36  1  0.00038700  0.00000000  0.80285000  1
  O  O37  1  0.09033150  0.25546450  0.60397700  1
  O  O38  1  0.23486650  0.71880750  0.34042000  1
  O  O39  1  0.23486650  0.28119250  0.34042000  1
  O  O40  1  0.17430100  0.00000000  0.10651500  1
  O  O41  1  0.33169500  0.50000000  0.60020900  1
  O  O42  1  0.25689800  0.21373800  0.84172000  1
  O  O43  1  0.25689800  0.78626200  0.84172000  1
  O  O44  1  0.33100600  0.00000000  0.60429900  1
  O  O45  1  0.41673900  0.24118600  0.10390900  1
  O  O46  1  0.47769000  0.00000000  0.84102700  1
  O  O47  1  0.41673900  0.75881400  0.10390900  1
