# generated using pymatgen
data_Li4Mn3Cr3(SbO8)2
_symmetry_space_group_name_H-M   'P 1'
_cell_length_a   10.40970000
_cell_length_b   5.94136600
_cell_length_c   9.75710428
_cell_angle_alpha   90.00000000
_cell_angle_beta   91.60569627
_cell_angle_gamma   90.00000000
_symmetry_Int_Tables_number   1
_chemical_formula_structural   Li4Mn3Cr3(SbO8)2
_chemical_formula_sum   'Li8 Mn6 Cr6 Sb4 O32'
_cell_volume   603.21884506
_cell_formula_units_Z   2
loop_
 _symmetry_equiv_pos_site_id
 _symmetry_equiv_pos_as_xyz
  1  'x, y, z'
loop_
 _atom_site_type_symbol
 _atom_site_label
 _atom_site_symmetry_multiplicity
 _atom_site_fract_x
 _atom_site_fract_y
 _atom_site_fract_z
 _atom_site_occupancy
  Li  Li0  1  0.66327100  0.00000000  0.90700900  1
  Li  Li1  1  0.50069100  0.50000000  0.98866000  1
  Li  Li2  1  0.50379200  0.50000000  0.48856800  1
  Li  Li3  1  0.83403300  0.50000000  0.40136400  1
  Li  Li4  1  0.16327100  0.50000000  0.90700900  1
  Li  Li5  1  0.00069100  0.00000000  0.98866000  1
  Li  Li6  1  0.00379200  0.00000000  0.48856800  1
  Li  Li7  1  0.33403300  0.00000000  0.40136400  1
  Mn  Mn8  1  0.83201600  0.00000000  0.21130500  1
  Mn  Mn9  1  0.91635550  0.74622850  0.71253500  1
  Mn  Mn10  1  0.91635550  0.25377150  0.71253500  1
  Mn  Mn11  1  0.33201600  0.50000000  0.21130500  1
  Mn  Mn12  1  0.41635550  0.24622850  0.71253500  1
  Mn  Mn13  1  0.41635550  0.75377150  0.71253500  1
  Cr  Cr14  1  0.58559800  0.24558200  0.21413600  1
  Cr  Cr15  1  0.58559800  0.75441800  0.21413600  1
  Cr  Cr16  1  0.67062100  0.50000000  0.71499600  1
  Cr  Cr17  1  0.08559800  0.74558200  0.21413600  1
  Cr  Cr18  1  0.08559800  0.25441800  0.21413600  1
  Cr  Cr19  1  0.17062100  0.00000000  0.71499600  1
  Sb  Sb20  1  0.66868100  0.00000000  0.48484400  1
  Sb  Sb21  1  0.82899500  0.50000000  0.98728500  1
  Sb  Sb22  1  0.16868100  0.50000000  0.48484400  1
  Sb  Sb23  1  0.32899500  0.00000000  0.98728500  1
  O  O24  1  0.58899750  0.25078250  0.59180700  1
  O  O25  1  0.51863700  0.00000000  0.33956800  1
  O  O26  1  0.67040400  0.00000000  0.11362900  1
  O  O27  1  0.99695200  0.00000000  0.30279200  1
  O  O28  1  0.99968200  0.00000000  0.80077300  1
  O  O29  1  0.58899750  0.74921750  0.59180700  1
  O  O30  1  0.73848050  0.22733350  0.34686700  1
  O  O31  1  0.73848050  0.77266650  0.34686700  1
  O  O32  1  0.66496400  0.50000000  0.09928200  1
  O  O33  1  0.83876600  0.00000000  0.59192200  1
  O  O34  1  0.74957200  0.72107700  0.84954200  1
  O  O35  1  0.74957200  0.27892300  0.84954200  1
  O  O36  1  0.83477900  0.50000000  0.61530500  1
  O  O37  1  0.91874650  0.74976750  0.09160300  1
  O  O38  1  0.97794300  0.50000000  0.84756800  1
  O  O39  1  0.91874650  0.25023250  0.09160300  1
  O  O40  1  0.08899750  0.75078250  0.59180700  1
  O  O41  1  0.01863700  0.50000000  0.33956800  1
  O  O42  1  0.17040400  0.50000000  0.11362900  1
  O  O43  1  0.49695200  0.50000000  0.30279200  1
  O  O44  1  0.49968200  0.50000000  0.80077300  1
  O  O45  1  0.08899750  0.24921750  0.59180700  1
  O  O46  1  0.23848050  0.72733350  0.34686700  1
  O  O47  1  0.23848050  0.27266650  0.34686700  1
  O  O48  1  0.16496400  0.00000000  0.09928200  1
  O  O49  1  0.33876600  0.50000000  0.59192200  1
  O  O50  1  0.24957200  0.22107700  0.84954200  1
  O  O51  1  0.24957200  0.77892300  0.84954200  1
  O  O52  1  0.33477900  0.00000000  0.61530500  1
  O  O53  1  0.41874650  0.24976750  0.09160300  1
  O  O54  1  0.47794300  0.00000000  0.84756800  1
  O  O55  1  0.41874650  0.75023250  0.09160300  1
