# generated using pymatgen
data_LiFe2(CO3)3
_symmetry_space_group_name_H-M   'P 1'
_cell_length_a   5.87377600
_cell_length_b   4.98360000
_cell_length_c   6.08272043
_cell_angle_alpha   90.00000000
_cell_angle_beta   108.41707670
_cell_angle_gamma   90.00000000
_symmetry_Int_Tables_number   1
_chemical_formula_structural   LiFe2(CO3)3
_chemical_formula_sum   'Li1 Fe2 C3 O9'
_cell_volume   168.93700917
_cell_formula_units_Z   1
loop_
 _symmetry_equiv_pos_site_id
 _symmetry_equiv_pos_as_xyz
  1  'x, y, z'
loop_
 _atom_site_type_symbol
 _atom_site_label
 _atom_site_symmetry_multiplicity
 _atom_site_fract_x
 _atom_site_fract_y
 _atom_site_fract_z
 _atom_site_occupancy
  Li  Li0  1  0.77439600  0.50000000  0.18963400  1
  Fe  Fe1  1  0.92258000  0.00000000  0.91058700  1
  Fe  Fe2  1  0.59148300  0.50000000  0.60304700  1
  C  C3  1  0.46013700  0.00000000  0.86411800  1
  C  C4  1  0.85014800  0.00000000  0.44917000  1
  C  C5  1  0.24281100  0.50000000  0.24254500  1
  O  O6  1  0.26297100  0.00000000  0.90062600  1
  O  O7  1  0.88905000  0.00000000  0.25590300  1
  O  O8  1  0.57918400  0.77755600  0.85259700  1
  O  O9  1  0.83645900  0.77666000  0.55821600  1
  O  O10  1  0.23515700  0.50000000  0.45652800  1
  O  O11  1  0.05420800  0.50000000  0.06826400  1
  O  O12  1  0.46318900  0.50000000  0.23637500  1
  O  O13  1  0.57918400  0.22244400  0.85259700  1
  O  O14  1  0.83645900  0.22334000  0.55821600  1
