# generated using pymatgen
data_Co3TeO8
_symmetry_space_group_name_H-M   'P 1'
_cell_length_a   5.94490427
_cell_length_b   5.94490427
_cell_length_c   14.55317685
_cell_angle_alpha   90.00000000
_cell_angle_beta   90.00000000
_cell_angle_gamma   120.00000000
_symmetry_Int_Tables_number   1
_chemical_formula_structural   Co3TeO8
_chemical_formula_sum   'Co9 Te3 O24'
_cell_volume   445.42867240
_cell_formula_units_Z   3
loop_
 _symmetry_equiv_pos_site_id
 _symmetry_equiv_pos_as_xyz
  1  'x, y, z'
loop_
 _atom_site_type_symbol
 _atom_site_label
 _atom_site_symmetry_multiplicity
 _atom_site_fract_x
 _atom_site_fract_y
 _atom_site_fract_z
 _atom_site_occupancy
  Co  Co0  1  0.50000000  0.50000000  0.00000000  1
  Co  Co1  1  0.16666667  0.33333333  0.33333333  1
  Co  Co2  1  0.00000000  0.50000000  0.00000000  1
  Co  Co3  1  0.16666667  0.83333333  0.33333333  1
  Co  Co4  1  0.83333333  0.66666667  0.66666667  1
  Co  Co5  1  0.66666667  0.83333333  0.33333333  1
  Co  Co6  1  0.83333333  0.16666667  0.66666667  1
  Co  Co7  1  0.50000000  0.00000000  0.00000000  1
  Co  Co8  1  0.33333333  0.16666667  0.66666667  1
  Te  Te9  1  0.00000000  0.00000000  0.00000000  1
  Te  Te10  1  0.66666667  0.33333333  0.33333333  1
  Te  Te11  1  0.33333333  0.66666667  0.66666667  1
  O  O12  1  0.99343600  0.49671800  0.26354100  1
  O  O13  1  0.50328200  0.00656400  0.26354100  1
  O  O14  1  0.50328200  0.49671800  0.26354100  1
  O  O15  1  0.33333333  0.66666667  0.94362967  1
  O  O16  1  0.33333333  0.66666667  0.38970367  1
  O  O17  1  0.16338467  0.83661533  0.06979233  1
  O  O18  1  0.16338467  0.32676933  0.06979233  1
  O  O19  1  0.67323067  0.83661533  0.06979233  1
  O  O20  1  0.66010267  0.83005133  0.59687433  1
  O  O21  1  0.16994867  0.33989733  0.59687433  1
  O  O22  1  0.16994867  0.83005133  0.59687433  1
  O  O23  1  0.00000000  0.00000000  0.27696300  1
  O  O24  1  0.00000000  0.00000000  0.72303700  1
  O  O25  1  0.83005133  0.16994867  0.40312567  1
  O  O26  1  0.83005133  0.66010267  0.40312567  1
  O  O27  1  0.33989733  0.16994867  0.40312567  1
  O  O28  1  0.32676933  0.16338467  0.93020767  1
  O  O29  1  0.83661533  0.67323067  0.93020767  1
  O  O30  1  0.83661533  0.16338467  0.93020767  1
  O  O31  1  0.66666667  0.33333333  0.61029633  1
  O  O32  1  0.66666667  0.33333333  0.05637033  1
  O  O33  1  0.49671800  0.50328200  0.73645900  1
  O  O34  1  0.49671800  0.99343600  0.73645900  1
  O  O35  1  0.00656400  0.50328200  0.73645900  1
