# generated using pymatgen
data_TiNbO4
_symmetry_space_group_name_H-M   'P 1'
_cell_length_a   9.06216600
_cell_length_b   6.79635600
_cell_length_c   7.40348729
_cell_angle_alpha   90.00000000
_cell_angle_beta   114.14090982
_cell_angle_gamma   90.00000000
_symmetry_Int_Tables_number   1
_chemical_formula_structural   TiNbO4
_chemical_formula_sum   'Ti6 Nb6 O24'
_cell_volume   416.09980918
_cell_formula_units_Z   6
loop_
 _symmetry_equiv_pos_site_id
 _symmetry_equiv_pos_as_xyz
  1  'x, y, z'
loop_
 _atom_site_type_symbol
 _atom_site_label
 _atom_site_symmetry_multiplicity
 _atom_site_fract_x
 _atom_site_fract_y
 _atom_site_fract_z
 _atom_site_occupancy
  Ti  Ti0  1  0.82795000  0.50000000  0.32886600  1
  Ti  Ti1  1  0.83732900  0.50000000  0.84135100  1
  Ti  Ti2  1  0.50846300  0.50000000  0.99782400  1
  Ti  Ti3  1  0.32795000  0.00000000  0.32886600  1
  Ti  Ti4  1  0.33732900  0.00000000  0.84135100  1
  Ti  Ti5  1  0.00846300  0.00000000  0.99782400  1
  Nb  Nb6  1  0.16418100  0.50000000  0.16504400  1
  Nb  Nb7  1  0.16178600  0.50000000  0.67192100  1
  Nb  Nb8  1  0.49791900  0.50000000  0.49451500  1
  Nb  Nb9  1  0.66418100  0.00000000  0.16504400  1
  Nb  Nb10  1  0.66178600  0.00000000  0.67192100  1
  Nb  Nb11  1  0.99791900  0.00000000  0.49451500  1
  O  O12  1  0.83489550  0.20716950  0.33524700  1
  O  O13  1  0.17000000  0.19739700  0.66980500  1
  O  O14  1  0.06624700  0.50000000  0.36937000  1
  O  O15  1  0.73229100  0.50000000  0.03555400  1
  O  O16  1  0.40006300  0.50000000  0.70173300  1
  O  O17  1  0.60080000  0.50000000  0.29309700  1
  O  O18  1  0.27245600  0.50000000  0.97049300  1
  O  O19  1  0.93032900  0.50000000  0.63059700  1
  O  O20  1  0.17000000  0.80260300  0.66980500  1
  O  O21  1  0.83489550  0.79283050  0.33524700  1
  O  O22  1  0.99519750  0.29918050  0.99476600  1
  O  O23  1  0.99519750  0.70081950  0.99476600  1
  O  O24  1  0.33489550  0.70716950  0.33524700  1
  O  O25  1  0.67000000  0.69739700  0.66980500  1
  O  O26  1  0.56624700  0.00000000  0.36937000  1
  O  O27  1  0.23229100  0.00000000  0.03555400  1
  O  O28  1  0.90006300  0.00000000  0.70173300  1
  O  O29  1  0.10080000  0.00000000  0.29309700  1
  O  O30  1  0.77245600  0.00000000  0.97049300  1
  O  O31  1  0.43032900  0.00000000  0.63059700  1
  O  O32  1  0.67000000  0.30260300  0.66980500  1
  O  O33  1  0.33489550  0.29283050  0.33524700  1
  O  O34  1  0.49519750  0.79918050  0.99476600  1
  O  O35  1  0.49519750  0.20081950  0.99476600  1
