# generated using pymatgen
data_Li2Mn3CuO8
_symmetry_space_group_name_H-M   'P 1'
_cell_length_a   8.19860541
_cell_length_b   8.31091522
_cell_length_c   8.33200174
_cell_angle_alpha   90.00000000
_cell_angle_beta   90.00000000
_cell_angle_gamma   90.00000000
_symmetry_Int_Tables_number   1
_chemical_formula_structural   Li2Mn3CuO8
_chemical_formula_sum   'Li8 Mn12 Cu4 O32'
_cell_volume   567.72522246
_cell_formula_units_Z   4
loop_
 _symmetry_equiv_pos_site_id
 _symmetry_equiv_pos_as_xyz
  1  'x, y, z'
loop_
 _atom_site_type_symbol
 _atom_site_label
 _atom_site_symmetry_multiplicity
 _atom_site_fract_x
 _atom_site_fract_y
 _atom_site_fract_z
 _atom_site_occupancy
  Li  Li0  1  0.62258700  0.37588900  0.87645150  1
  Li  Li1  1  0.75344600  0.25265000  0.24771850  1
  Li  Li2  1  0.74655400  0.74735000  0.74771850  1
  Li  Li3  1  0.87741300  0.62411100  0.37645150  1
  Li  Li4  1  0.12258700  0.12411100  0.12354850  1
  Li  Li5  1  0.25344600  0.24735000  0.75228150  1
  Li  Li6  1  0.24655400  0.75265000  0.25228150  1
  Li  Li7  1  0.37741300  0.87588900  0.62354850  1
  Mn  Mn8  1  0.62584300  0.12178000  0.62185550  1
  Mn  Mn9  1  0.62549400  0.88039000  0.37351250  1
  Mn  Mn10  1  0.62417500  0.62694500  0.12266350  1
  Mn  Mn11  1  0.87582500  0.37305500  0.62266350  1
  Mn  Mn12  1  0.87450600  0.11961000  0.87351250  1
  Mn  Mn13  1  0.87415700  0.87822000  0.12185550  1
  Mn  Mn14  1  0.12584300  0.37822000  0.37814450  1
  Mn  Mn15  1  0.12549400  0.61961000  0.62648750  1
  Mn  Mn16  1  0.12417500  0.87305500  0.87733650  1
  Mn  Mn17  1  0.37582500  0.12694500  0.37733650  1
  Mn  Mn18  1  0.37450600  0.38039000  0.12648750  1
  Mn  Mn19  1  0.37415700  0.62178000  0.87814450  1
  Cu  Cu20  1  0.48716700  0.00642900  0.99634050  1
  Cu  Cu21  1  0.01283300  0.99357100  0.49634050  1
  Cu  Cu22  1  0.98716700  0.49357100  0.00365950  1
  Cu  Cu23  1  0.51283300  0.50642900  0.50365950  1
  O  O24  1  0.60510700  0.62853100  0.89482350  1
  O  O25  1  0.60955400  0.40182800  0.12897850  1
  O  O26  1  0.61635500  0.11566500  0.38684950  1
  O  O27  1  0.63177400  0.89374400  0.59889050  1
  O  O28  1  0.61896600  0.65114300  0.35740350  1
  O  O29  1  0.63565600  0.86552200  0.13519950  1
  O  O30  1  0.63906800  0.12119800  0.85043750  1
  O  O31  1  0.64517500  0.35767600  0.62678550  1
  O  O32  1  0.85482500  0.64232400  0.12678550  1
  O  O33  1  0.86093200  0.87880200  0.35043750  1
  O  O34  1  0.86434400  0.13447800  0.63519950  1
  O  O35  1  0.88103400  0.34885700  0.85740350  1
  O  O36  1  0.86822600  0.10625600  0.09889050  1
  O  O37  1  0.88364500  0.88433500  0.88684950  1
  O  O38  1  0.89044600  0.59817200  0.62897850  1
  O  O39  1  0.89489300  0.37146900  0.39482350  1
  O  O40  1  0.10510700  0.87146900  0.10517650  1
  O  O41  1  0.10955400  0.09817200  0.87102150  1
  O  O42  1  0.11635500  0.38433500  0.61315050  1
  O  O43  1  0.13177400  0.60625600  0.40110950  1
  O  O44  1  0.11896600  0.84885700  0.64259650  1
  O  O45  1  0.13565600  0.63447800  0.86480050  1
  O  O46  1  0.13906800  0.37880200  0.14956250  1
  O  O47  1  0.14517500  0.14232400  0.37321450  1
  O  O48  1  0.35482500  0.85767600  0.87321450  1
  O  O49  1  0.36093200  0.62119800  0.64956250  1
  O  O50  1  0.36434400  0.36552200  0.36480050  1
  O  O51  1  0.38103400  0.15114300  0.14259650  1
  O  O52  1  0.36822600  0.39374400  0.90110950  1
  O  O53  1  0.38364500  0.61566500  0.11315050  1
  O  O54  1  0.39044600  0.90182800  0.37102150  1
  O  O55  1  0.39489300  0.12853100  0.60517650  1
