# generated using pymatgen
data_Na3Fe2(PO4)3
_symmetry_space_group_name_H-M   'P 1'
_cell_length_a   8.84505829
_cell_length_b   8.84505829
_cell_length_c   22.55000532
_cell_angle_alpha   90.00000000
_cell_angle_beta   90.00000000
_cell_angle_gamma   120.00000000
_symmetry_Int_Tables_number   1
_chemical_formula_structural   Na3Fe2(PO4)3
_chemical_formula_sum   'Na18 Fe12 P18 O72'
_cell_volume   1527.84282584
_cell_formula_units_Z   6
loop_
 _symmetry_equiv_pos_site_id
 _symmetry_equiv_pos_as_xyz
  1  'x, y, z'
loop_
 _atom_site_type_symbol
 _atom_site_label
 _atom_site_symmetry_multiplicity
 _atom_site_fract_x
 _atom_site_fract_y
 _atom_site_fract_z
 _atom_site_occupancy
  Na  Na0  1  0.97705967  0.36322933  0.27281133  1
  Na  Na1  1  0.28049700  0.31039300  0.06052200  1
  Na  Na2  1  0.02989600  0.71950300  0.06052200  1
  Na  Na3  1  0.63677067  0.61383033  0.27281133  1
  Na  Na4  1  0.38616967  0.02294033  0.27281133  1
  Na  Na5  1  0.68960700  0.97010400  0.06052200  1
  Na  Na6  1  0.64372633  0.69656267  0.60614467  1
  Na  Na7  1  0.94716367  0.64372633  0.39385533  1
  Na  Na8  1  0.69656267  0.05283633  0.39385533  1
  Na  Na9  1  0.30343733  0.94716367  0.60614467  1
  Na  Na10  1  0.05283633  0.35627367  0.60614467  1
  Na  Na11  1  0.35627367  0.30343733  0.39385533  1
  Na  Na12  1  0.31039300  0.02989600  0.93947800  1
  Na  Na13  1  0.61383033  0.97705967  0.72718867  1
  Na  Na14  1  0.36322933  0.38616967  0.72718867  1
  Na  Na15  1  0.97010400  0.28049700  0.93947800  1
  Na  Na16  1  0.71950300  0.68960700  0.93947800  1
  Na  Na17  1  0.02294033  0.63677067  0.72718867  1
  Fe  Fe18  1  0.00000000  0.00000000  0.14853300  1
  Fe  Fe19  1  0.33333333  0.66666667  0.01700267  1
  Fe  Fe20  1  0.33333333  0.66666667  0.31633067  1
  Fe  Fe21  1  0.66666667  0.33333333  0.18480033  1
  Fe  Fe22  1  0.66666667  0.33333333  0.48186633  1
  Fe  Fe23  1  0.00000000  0.00000000  0.35033600  1
  Fe  Fe24  1  0.00000000  0.00000000  0.64966400  1
  Fe  Fe25  1  0.33333333  0.66666667  0.51813367  1
  Fe  Fe26  1  0.33333333  0.66666667  0.81519967  1
  Fe  Fe27  1  0.66666667  0.33333333  0.68366933  1
  Fe  Fe28  1  0.66666667  0.33333333  0.98299733  1
  Fe  Fe29  1  0.00000000  0.00000000  0.85146700  1
  P  P30  1  0.95260067  0.33320733  0.08432933  1
  P  P31  1  0.28606000  0.28593400  0.24900400  1
  P  P32  1  0.99987400  0.71394000  0.24900400  1
  P  P33  1  0.66679267  0.61939333  0.08432933  1
  P  P34  1  0.38060667  0.04739933  0.08432933  1
  P  P35  1  0.71406600  0.00012600  0.24900400  1
  P  P36  1  0.61926733  0.66654067  0.41766267  1
  P  P37  1  0.95272667  0.61926733  0.58233733  1
  P  P38  1  0.66654067  0.04727333  0.58233733  1
  P  P39  1  0.33345933  0.95272667  0.41766267  1
  P  P40  1  0.04727333  0.38073267  0.41766267  1
  P  P41  1  0.38073267  0.33345933  0.58233733  1
  P  P42  1  0.28593400  0.99987400  0.75099600  1
  P  P43  1  0.61939333  0.95260067  0.91567067  1
  P  P44  1  0.33320733  0.38060667  0.91567067  1
  P  P45  1  0.00012600  0.28606000  0.75099600  1
  P  P46  1  0.71394000  0.71406600  0.75099600  1
  P  P47  1  0.04739933  0.66679267  0.91567067  1
  O  O48  1  0.93732033  0.78535067  0.30167767  1
  O  O49  1  0.84803033  0.06267967  0.30167767  1
  O  O50  1  0.87132833  0.35823667  0.14097367  1
  O  O51  1  0.99551900  0.18368400  0.09053500  1
  O  O52  1  0.21464933  0.15196967  0.30167767  1
  O  O53  1  0.85035067  0.52149833  0.24279833  1
  O  O54  1  0.17975833  0.20466167  0.19235967  1
  O  O55  1  0.11864233  0.50765867  0.06840267  1
  O  O56  1  0.27765033  0.45197567  0.26493067  1
  O  O57  1  0.02490333  0.82024167  0.19235967  1
  O  O58  1  0.47850167  0.32885233  0.24279833  1
  O  O59  1  0.17432533  0.72234967  0.26493067  1
  O  O60  1  0.49234133  0.61098367  0.06840267  1
  O  O61  1  0.18816500  0.00448100  0.09053500  1
  O  O62  1  0.64176333  0.51309167  0.14097367  1
  O  O63  1  0.38901633  0.88135767  0.06840267  1
  O  O64  1  0.54802433  0.82567467  0.26493067  1
  O  O65  1  0.48690833  0.12867167  0.14097367  1
  O  O66  1  0.81631600  0.81183500  0.09053500  1
  O  O67  1  0.45201733  0.18136367  0.03165567  1
  O  O68  1  0.67114767  0.14964933  0.24279833  1
  O  O69  1  0.79533833  0.97509667  0.19235967  1
  O  O70  1  0.81863633  0.27065367  0.03165567  1
  O  O71  1  0.72934633  0.54798267  0.03165567  1
  O  O72  1  0.60398700  0.11868400  0.63501100  1
  O  O73  1  0.51469700  0.39601300  0.63501100  1
  O  O74  1  0.53799500  0.69157000  0.47430700  1
  O  O75  1  0.66218567  0.51701733  0.42386833  1
  O  O76  1  0.88131600  0.48530300  0.63501100  1
  O  O77  1  0.51701733  0.85483167  0.57613167  1
  O  O78  1  0.84642500  0.53799500  0.52569300  1
  O  O79  1  0.78530900  0.84099200  0.40173600  1
  O  O80  1  0.94431700  0.78530900  0.59826400  1
  O  O81  1  0.69157000  0.15357500  0.52569300  1
  O  O82  1  0.14516833  0.66218567  0.57613167  1
  O  O83  1  0.84099200  0.05568300  0.59826400  1
  O  O84  1  0.15900800  0.94431700  0.40173600  1
  O  O85  1  0.85483167  0.33781433  0.42386833  1
  O  O86  1  0.30843000  0.84642500  0.47430700  1
  O  O87  1  0.05568300  0.21469100  0.40173600  1
  O  O88  1  0.21469100  0.15900800  0.59826400  1
  O  O89  1  0.15357500  0.46200500  0.47430700  1
  O  O90  1  0.48298267  0.14516833  0.42386833  1
  O  O91  1  0.11868400  0.51469700  0.36498900  1
  O  O92  1  0.33781433  0.48298267  0.57613167  1
  O  O93  1  0.46200500  0.30843000  0.52569300  1
  O  O94  1  0.48530300  0.60398700  0.36498900  1
  O  O95  1  0.39601300  0.88131600  0.36498900  1
  O  O96  1  0.27065367  0.45201733  0.96834433  1
  O  O97  1  0.18136367  0.72934633  0.96834433  1
  O  O98  1  0.20466167  0.02490333  0.80764033  1
  O  O99  1  0.32885233  0.85035067  0.75720167  1
  O  O100  1  0.54798267  0.81863633  0.96834433  1
  O  O101  1  0.18368400  0.18816500  0.90946500  1
  O  O102  1  0.51309167  0.87132833  0.85902633  1
  O  O103  1  0.45197567  0.17432533  0.73506933  1
  O  O104  1  0.61098367  0.11864233  0.93159733  1
  O  O105  1  0.35823667  0.48690833  0.85902633  1
  O  O106  1  0.81183500  0.99551900  0.90946500  1
  O  O107  1  0.50765867  0.38901633  0.93159733  1
  O  O108  1  0.82567467  0.27765033  0.73506933  1
  O  O109  1  0.52149833  0.67114767  0.75720167  1
  O  O110  1  0.97509667  0.17975833  0.80764033  1
  O  O111  1  0.72234967  0.54802433  0.73506933  1
  O  O112  1  0.88135767  0.49234133  0.93159733  1
  O  O113  1  0.82024167  0.79533833  0.80764033  1
  O  O114  1  0.14964933  0.47850167  0.75720167  1
  O  O115  1  0.78535067  0.84803033  0.69832233  1
  O  O116  1  0.00448100  0.81631600  0.90946500  1
  O  O117  1  0.12867167  0.64176333  0.85902633  1
  O  O118  1  0.15196967  0.93732033  0.69832233  1
  O  O119  1  0.06267967  0.21464933  0.69832233  1
