# generated using pymatgen
data_LiCoSiO4
_symmetry_space_group_name_H-M   'P 1'
_cell_length_a   5.32572461
_cell_length_b   5.32572461
_cell_length_c   12.17509700
_cell_angle_alpha   90.00000000
_cell_angle_beta   90.00000000
_cell_angle_gamma   120.00000000
_symmetry_Int_Tables_number   1
_chemical_formula_structural   LiCoSiO4
_chemical_formula_sum   'Li3 Co3 Si3 O12'
_cell_volume   299.06147595
_cell_formula_units_Z   3
loop_
 _symmetry_equiv_pos_site_id
 _symmetry_equiv_pos_as_xyz
  1  'x, y, z'
loop_
 _atom_site_type_symbol
 _atom_site_label
 _atom_site_symmetry_multiplicity
 _atom_site_fract_x
 _atom_site_fract_y
 _atom_site_fract_z
 _atom_site_occupancy
  Li  Li0  1  0.00000000  0.00000000  0.00000000  1
  Li  Li1  1  0.00000000  0.00000000  0.33333333  1
  Li  Li2  1  0.00000000  0.00000000  0.66666667  1
  Co  Co3  1  0.00000000  0.50000000  0.83333333  1
  Co  Co4  1  0.50000000  0.50000000  0.16666667  1
  Co  Co5  1  0.50000000  0.00000000  0.50000000  1
  Si  Si6  1  0.00000000  0.50000000  0.33333333  1
  Si  Si7  1  0.50000000  0.50000000  0.66666667  1
  Si  Si8  1  0.50000000  0.00000000  0.00000000  1
  O  O9  1  0.18853100  0.79542700  0.40668900  1
  O  O10  1  0.20457300  0.81146900  0.92664433  1
  O  O11  1  0.18853100  0.39310400  0.25997767  1
  O  O12  1  0.20457300  0.39310400  0.74002233  1
  O  O13  1  0.60689600  0.81146900  0.07335567  1
  O  O14  1  0.60689600  0.79542700  0.59331100  1
  O  O15  1  0.39310400  0.20457300  0.59331100  1
  O  O16  1  0.39310400  0.18853100  0.07335567  1
  O  O17  1  0.79542700  0.60689600  0.74002233  1
  O  O18  1  0.81146900  0.60689600  0.25997767  1
  O  O19  1  0.79542700  0.18853100  0.92664433  1
  O  O20  1  0.81146900  0.20457300  0.40668900  1
