# generated using pymatgen
data_LiVCuO4
_symmetry_space_group_name_H-M   'P 1'
_cell_length_a   5.80766200
_cell_length_b   8.35864800
_cell_length_c   6.39651800
_cell_angle_alpha   90.00000000
_cell_angle_beta   90.00000000
_cell_angle_gamma   90.00000000
_symmetry_Int_Tables_number   1
_chemical_formula_structural   LiVCuO4
_chemical_formula_sum   'Li4 V4 Cu4 O16'
_cell_volume   310.51386420
_cell_formula_units_Z   4
loop_
 _symmetry_equiv_pos_site_id
 _symmetry_equiv_pos_as_xyz
  1  'x, y, z'
loop_
 _atom_site_type_symbol
 _atom_site_label
 _atom_site_symmetry_multiplicity
 _atom_site_fract_x
 _atom_site_fract_y
 _atom_site_fract_z
 _atom_site_occupancy
  Li  Li0  1  0.50000000  0.83085200  0.75000000  1
  Li  Li1  1  0.50000000  0.16914800  0.25000000  1
  Li  Li2  1  0.00000000  0.33085200  0.75000000  1
  Li  Li3  1  0.00000000  0.66914800  0.25000000  1
  V  V4  1  0.50000000  0.84832500  0.25000000  1
  V  V5  1  0.50000000  0.15167500  0.75000000  1
  V  V6  1  0.00000000  0.34832500  0.25000000  1
  V  V7  1  0.00000000  0.65167500  0.75000000  1
  Cu  Cu8  1  0.00000000  0.00000000  0.00000000  1
  Cu  Cu9  1  0.00000000  0.00000000  0.50000000  1
  Cu  Cu10  1  0.50000000  0.50000000  0.00000000  1
  Cu  Cu11  1  0.50000000  0.50000000  0.50000000  1
  O  O12  1  0.50000000  0.73063700  0.02628400  1
  O  O13  1  0.50000000  0.73063700  0.47371600  1
  O  O14  1  0.26187600  0.98025000  0.25000000  1
  O  O15  1  0.26187600  0.01975000  0.75000000  1
  O  O16  1  0.73812400  0.98025000  0.25000000  1
  O  O17  1  0.73812400  0.01975000  0.75000000  1
  O  O18  1  0.50000000  0.26936300  0.97371600  1
  O  O19  1  0.50000000  0.26936300  0.52628400  1
  O  O20  1  0.00000000  0.23063700  0.02628400  1
  O  O21  1  0.00000000  0.23063700  0.47371600  1
  O  O22  1  0.76187600  0.48025000  0.25000000  1
  O  O23  1  0.76187600  0.51975000  0.75000000  1
  O  O24  1  0.23812400  0.48025000  0.25000000  1
  O  O25  1  0.23812400  0.51975000  0.75000000  1
  O  O26  1  0.00000000  0.76936300  0.97371600  1
  O  O27  1  0.00000000  0.76936300  0.52628400  1
