# generated using pymatgen
data_Li2MnNbO4
_symmetry_space_group_name_H-M   'P 1'
_cell_length_a   5.90920000
_cell_length_b   6.28825400
_cell_length_c   8.97801600
_cell_angle_alpha   90.00000000
_cell_angle_beta   90.00000000
_cell_angle_gamma   90.00000000
_symmetry_Int_Tables_number   1
_chemical_formula_structural   Li2MnNbO4
_chemical_formula_sum   'Li8 Mn4 Nb4 O16'
_cell_volume   333.61006126
_cell_formula_units_Z   4
loop_
 _symmetry_equiv_pos_site_id
 _symmetry_equiv_pos_as_xyz
  1  'x, y, z'
loop_
 _atom_site_type_symbol
 _atom_site_label
 _atom_site_symmetry_multiplicity
 _atom_site_fract_x
 _atom_site_fract_y
 _atom_site_fract_z
 _atom_site_occupancy
  Li  Li0  1  0.25000000  0.25000000  0.25000000  1
  Li  Li1  1  0.50000000  0.50000000  0.00000000  1
  Li  Li2  1  0.75000000  0.25000000  0.25000000  1
  Li  Li3  1  0.50000000  0.00000000  0.00000000  1
  Li  Li4  1  0.75000000  0.75000000  0.75000000  1
  Li  Li5  1  0.00000000  0.00000000  0.50000000  1
  Li  Li6  1  0.25000000  0.75000000  0.75000000  1
  Li  Li7  1  0.00000000  0.50000000  0.50000000  1
  Mn  Mn8  1  0.00000000  0.00000000  0.00000000  1
  Mn  Mn9  1  0.00000000  0.50000000  0.00000000  1
  Mn  Mn10  1  0.50000000  0.50000000  0.50000000  1
  Mn  Mn11  1  0.50000000  0.00000000  0.50000000  1
  Nb  Nb12  1  0.75000000  0.25000000  0.75000000  1
  Nb  Nb13  1  0.25000000  0.25000000  0.75000000  1
  Nb  Nb14  1  0.25000000  0.75000000  0.25000000  1
  Nb  Nb15  1  0.75000000  0.75000000  0.25000000  1
  O  O16  1  0.50000000  0.00330000  0.24981000  1
  O  O17  1  0.25161350  0.25000000  0.97433650  1
  O  O18  1  0.00000000  0.99670000  0.74981000  1
  O  O19  1  0.74838650  0.25000000  0.97433650  1
  O  O20  1  0.25161350  0.75000000  0.02566350  1
  O  O21  1  0.00000000  0.00330000  0.25019000  1
  O  O22  1  0.74838650  0.75000000  0.02566350  1
  O  O23  1  0.50000000  0.99670000  0.75019000  1
  O  O24  1  0.00000000  0.50330000  0.74981000  1
  O  O25  1  0.75161350  0.75000000  0.47433650  1
  O  O26  1  0.50000000  0.49670000  0.24981000  1
  O  O27  1  0.24838650  0.75000000  0.47433650  1
  O  O28  1  0.75161350  0.25000000  0.52566350  1
  O  O29  1  0.50000000  0.50330000  0.75019000  1
  O  O30  1  0.24838650  0.25000000  0.52566350  1
  O  O31  1  0.00000000  0.49670000  0.25019000  1
