# generated using pymatgen
data_Ba4Y2Cu4W2O17
_symmetry_space_group_name_H-M   'P 1'
_cell_length_a   5.88392777
_cell_length_b   6.03672932
_cell_length_c   12.24353995
_cell_angle_alpha   101.85586273
_cell_angle_beta   101.71337606
_cell_angle_gamma   97.68899472
_symmetry_Int_Tables_number   1
_chemical_formula_structural   Ba4Y2Cu4W2O17
_chemical_formula_sum   'Ba4 Y2 Cu4 W2 O17'
_cell_volume   409.69740016
_cell_formula_units_Z   1
loop_
 _symmetry_equiv_pos_site_id
 _symmetry_equiv_pos_as_xyz
  1  'x, y, z'
loop_
 _atom_site_type_symbol
 _atom_site_label
 _atom_site_symmetry_multiplicity
 _atom_site_fract_x
 _atom_site_fract_y
 _atom_site_fract_z
 _atom_site_occupancy
  Ba  Ba0  1  0.02783300  0.00670600  0.01150900  1
  Ba  Ba1  1  0.65359100  0.66068600  0.32085800  1
  Ba  Ba2  1  0.32427000  0.31130200  0.66342100  1
  Ba  Ba3  1  0.82335300  0.82682000  0.66637300  1
  Y  Y4  1  0.46964500  0.57217000  0.00389800  1
  Y  Y5  1  0.22369100  0.03953700  0.31873000  1
  Cu  Cu6  1  0.74090800  0.24087300  0.48571300  1
  Cu  Cu7  1  0.42587300  0.91454200  0.84274600  1
  Cu  Cu8  1  0.07284700  0.56120100  0.15977900  1
  Cu  Cu9  1  0.61148300  0.11749100  0.16382300  1
  W  W10  1  0.90356800  0.41174100  0.84034500  1
  W  W11  1  0.23531900  0.73212000  0.49778500  1
  O  O12  1  0.89090400  0.48499100  0.00752400  1
  O  O13  1  0.87563300  0.97274000  0.20403100  1
  O  O14  1  0.50314000  0.97922600  0.48917400  1
  O  O15  1  0.58865300  0.20873100  0.32265100  1
  O  O16  1  0.86991900  0.32851100  0.67636100  1
  O  O17  1  0.97525000  0.51425200  0.49664800  1
  O  O18  1  0.46014100  0.53614600  0.50802100  1
  O  O19  1  0.15738600  0.68738400  0.85955600  1
  O  O20  1  0.67165500  0.60892700  0.82668700  1
  O  O21  1  0.56129300  0.95224800  0.00554100  1
  O  O22  1  0.29632200  0.84587500  0.66230100  1
  O  O23  1  0.18422400  0.27290100  0.87310700  1
  O  O24  1  0.43135800  0.34676700  0.12605400  1
  O  O25  1  0.68611800  0.13408800  0.82277500  1
  O  O26  1  0.32425200  0.80588200  0.15577800  1
  O  O27  1  0.05297800  0.97945500  0.47359100  1
  O  O28  1  0.16229700  0.64609800  0.32491700  1
