# generated using pymatgen
data_LiMnF5
_symmetry_space_group_name_H-M   'P 1'
_cell_length_a   14.19358600
_cell_length_b   14.19358600
_cell_length_c   6.72798000
_cell_angle_alpha   90.00000000
_cell_angle_beta   90.00000000
_cell_angle_gamma   90.00000000
_symmetry_Int_Tables_number   1
_chemical_formula_structural   LiMnF5
_chemical_formula_sum   'Li16 Mn16 F80'
_cell_volume   1355.40461130
_cell_formula_units_Z   16
loop_
 _symmetry_equiv_pos_site_id
 _symmetry_equiv_pos_as_xyz
  1  'x, y, z'
loop_
 _atom_site_type_symbol
 _atom_site_label
 _atom_site_symmetry_multiplicity
 _atom_site_fract_x
 _atom_site_fract_y
 _atom_site_fract_z
 _atom_site_occupancy
  Li  Li0  1  0.61933100  0.41376200  0.82787100  1
  Li  Li1  1  0.11933100  0.41376200  0.42212900  1
  Li  Li2  1  0.08623800  0.11933100  0.67212900  1
  Li  Li3  1  0.08623800  0.61933100  0.07787100  1
  Li  Li4  1  0.91376200  0.88066900  0.67212900  1
  Li  Li5  1  0.91376200  0.38066900  0.07787100  1
  Li  Li6  1  0.88066900  0.58623800  0.42212900  1
  Li  Li7  1  0.38066900  0.58623800  0.82787100  1
  Li  Li8  1  0.11933100  0.91376200  0.32787100  1
  Li  Li9  1  0.61933100  0.91376200  0.92212900  1
  Li  Li10  1  0.58623800  0.61933100  0.17212900  1
  Li  Li11  1  0.58623800  0.11933100  0.57787100  1
  Li  Li12  1  0.41376200  0.38066900  0.17212900  1
  Li  Li13  1  0.41376200  0.88066900  0.57787100  1
  Li  Li14  1  0.38066900  0.08623800  0.92212900  1
  Li  Li15  1  0.88066900  0.08623800  0.32787100  1
  Mn  Mn16  1  0.90318650  0.29904750  0.60013050  1
  Mn  Mn17  1  0.29904750  0.59681350  0.35013050  1
  Mn  Mn18  1  0.70095250  0.40318650  0.35013050  1
  Mn  Mn19  1  0.09681350  0.70095250  0.60013050  1
  Mn  Mn20  1  0.90318650  0.79904750  0.14986950  1
  Mn  Mn21  1  0.79904750  0.59681350  0.89986950  1
  Mn  Mn22  1  0.20095250  0.40318650  0.89986950  1
  Mn  Mn23  1  0.09681350  0.20095250  0.14986950  1
  Mn  Mn24  1  0.40318650  0.79904750  0.10013050  1
  Mn  Mn25  1  0.79904750  0.09681350  0.85013050  1
  Mn  Mn26  1  0.20095250  0.90318650  0.85013050  1
  Mn  Mn27  1  0.59681350  0.20095250  0.10013050  1
  Mn  Mn28  1  0.40318650  0.29904750  0.64986950  1
  Mn  Mn29  1  0.29904750  0.09681350  0.39986950  1
  Mn  Mn30  1  0.70095250  0.90318650  0.39986950  1
  Mn  Mn31  1  0.59681350  0.70095250  0.64986950  1
  F  F32  1  0.87315750  0.21199850  0.41298650  1
  F  F33  1  0.84803500  0.22195100  0.80590400  1
  F  F34  1  0.77804900  0.34803500  0.55590400  1
  F  F35  1  0.78800150  0.37315750  0.16298650  1
  F  F36  1  0.21199850  0.62684250  0.16298650  1
  F  F37  1  0.22195100  0.65196500  0.55590400  1
  F  F38  1  0.24129550  0.48704750  0.40075450  1
  F  F39  1  0.74129550  0.48704750  0.84924550  1
  F  F40  1  0.15196500  0.77804900  0.80590400  1
  F  F41  1  0.07953200  0.61476200  0.79568900  1
  F  F42  1  0.07953200  0.11476200  0.95431100  1
  F  F43  1  0.11827950  0.45396150  0.08041950  1
  F  F44  1  0.61827950  0.45396150  0.16958050  1
  F  F45  1  0.12684250  0.78800150  0.41298650  1
  F  F46  1  0.11476200  0.42046800  0.70431100  1
  F  F47  1  0.61476200  0.42046800  0.54568900  1
  F  F48  1  0.04603850  0.11827950  0.33041950  1
  F  F49  1  0.04603850  0.61827950  0.41958050  1
  F  F50  1  0.01295250  0.74129550  0.09924550  1
  F  F51  1  0.01295250  0.24129550  0.65075450  1
  F  F52  1  0.98704750  0.75870450  0.65075450  1
  F  F53  1  0.98704750  0.25870450  0.09924550  1
  F  F54  1  0.95396150  0.38172050  0.41958050  1
  F  F55  1  0.95396150  0.88172050  0.33041950  1
  F  F56  1  0.88523800  0.57953200  0.70431100  1
  F  F57  1  0.38523800  0.57953200  0.54568900  1
  F  F58  1  0.87315750  0.71199850  0.33701350  1
  F  F59  1  0.88172050  0.54603850  0.08041950  1
  F  F60  1  0.38172050  0.54603850  0.16958050  1
  F  F61  1  0.92046800  0.38523800  0.79568900  1
  F  F62  1  0.92046800  0.88523800  0.95431100  1
  F  F63  1  0.84803500  0.72195100  0.94409600  1
  F  F64  1  0.75870450  0.51295250  0.40075450  1
  F  F65  1  0.25870450  0.51295250  0.84924550  1
  F  F66  1  0.27804900  0.34803500  0.69409600  1
  F  F67  1  0.28800150  0.37315750  0.08701350  1
  F  F68  1  0.71199850  0.62684250  0.08701350  1
  F  F69  1  0.72195100  0.65196500  0.69409600  1
  F  F70  1  0.15196500  0.27804900  0.94409600  1
  F  F71  1  0.12684250  0.28800150  0.33701350  1
  F  F72  1  0.37315750  0.71199850  0.91298650  1
  F  F73  1  0.34803500  0.72195100  0.30590400  1
  F  F74  1  0.27804900  0.84803500  0.05590400  1
  F  F75  1  0.28800150  0.87315750  0.66298650  1
  F  F76  1  0.71199850  0.12684250  0.66298650  1
  F  F77  1  0.72195100  0.15196500  0.05590400  1
  F  F78  1  0.74129550  0.98704750  0.90075450  1
  F  F79  1  0.24129550  0.98704750  0.34924550  1
  F  F80  1  0.65196500  0.27804900  0.30590400  1
  F  F81  1  0.57953200  0.11476200  0.29568900  1
  F  F82  1  0.57953200  0.61476200  0.45431100  1
  F  F83  1  0.61827950  0.95396150  0.58041950  1
  F  F84  1  0.11827950  0.95396150  0.66958050  1
  F  F85  1  0.62684250  0.28800150  0.91298650  1
  F  F86  1  0.61476200  0.92046800  0.20431100  1
  F  F87  1  0.11476200  0.92046800  0.04568900  1
  F  F88  1  0.54603850  0.61827950  0.83041950  1
  F  F89  1  0.54603850  0.11827950  0.91958050  1
  F  F90  1  0.51295250  0.24129550  0.59924550  1
  F  F91  1  0.51295250  0.74129550  0.15075450  1
  F  F92  1  0.48704750  0.25870450  0.15075450  1
  F  F93  1  0.48704750  0.75870450  0.59924550  1
  F  F94  1  0.45396150  0.88172050  0.91958050  1
  F  F95  1  0.45396150  0.38172050  0.83041950  1
  F  F96  1  0.38523800  0.07953200  0.20431100  1
  F  F97  1  0.88523800  0.07953200  0.04568900  1
  F  F98  1  0.37315750  0.21199850  0.83701350  1
  F  F99  1  0.38172050  0.04603850  0.58041950  1
  F  F100  1  0.88172050  0.04603850  0.66958050  1
  F  F101  1  0.42046800  0.88523800  0.29568900  1
  F  F102  1  0.42046800  0.38523800  0.45431100  1
  F  F103  1  0.34803500  0.22195100  0.44409600  1
  F  F104  1  0.25870450  0.01295250  0.90075450  1
  F  F105  1  0.75870450  0.01295250  0.34924550  1
  F  F106  1  0.77804900  0.84803500  0.19409600  1
  F  F107  1  0.78800150  0.87315750  0.58701350  1
  F  F108  1  0.21199850  0.12684250  0.58701350  1
  F  F109  1  0.22195100  0.15196500  0.19409600  1
  F  F110  1  0.65196500  0.77804900  0.44409600  1
  F  F111  1  0.62684250  0.78800150  0.83701350  1
