# generated using pymatgen
data_Li3MnCr3O8
_symmetry_space_group_name_H-M   'P 1'
_cell_length_a   10.25395600
_cell_length_b   5.88180400
_cell_length_c   5.93094271
_cell_angle_alpha   90.00000000
_cell_angle_beta   124.80808886
_cell_angle_gamma   90.00000000
_symmetry_Int_Tables_number   1
_chemical_formula_structural   Li3MnCr3O8
_chemical_formula_sum   'Li6 Mn2 Cr6 O16'
_cell_volume   293.70083826
_cell_formula_units_Z   2
loop_
 _symmetry_equiv_pos_site_id
 _symmetry_equiv_pos_as_xyz
  1  'x, y, z'
loop_
 _atom_site_type_symbol
 _atom_site_label
 _atom_site_symmetry_multiplicity
 _atom_site_fract_x
 _atom_site_fract_y
 _atom_site_fract_z
 _atom_site_occupancy
  Li  Li0  1  0.00000000  0.50000000  0.00000000  1
  Li  Li1  1  0.25000000  0.25000000  0.00000000  1
  Li  Li2  1  0.25000000  0.75000000  0.00000000  1
  Li  Li3  1  0.50000000  0.00000000  0.00000000  1
  Li  Li4  1  0.75000000  0.75000000  0.00000000  1
  Li  Li5  1  0.75000000  0.25000000  0.00000000  1
  Mn  Mn6  1  0.00000000  0.00000000  0.50000000  1
  Mn  Mn7  1  0.50000000  0.50000000  0.50000000  1
  Cr  Cr8  1  0.00000000  0.50000000  0.50000000  1
  Cr  Cr9  1  0.25000000  0.75000000  0.50000000  1
  Cr  Cr10  1  0.25000000  0.25000000  0.50000000  1
  Cr  Cr11  1  0.50000000  0.00000000  0.50000000  1
  Cr  Cr12  1  0.75000000  0.25000000  0.50000000  1
  Cr  Cr13  1  0.75000000  0.75000000  0.50000000  1
  O  O14  1  0.26507100  0.00000000  0.28510000  1
  O  O15  1  0.00940400  0.24687200  0.28694600  1
  O  O16  1  0.00940400  0.75312800  0.28694600  1
  O  O17  1  0.23624900  0.00000000  0.72219500  1
  O  O18  1  0.26375100  0.50000000  0.27780500  1
  O  O19  1  0.49059600  0.74687200  0.71305400  1
  O  O20  1  0.49059600  0.25312800  0.71305400  1
  O  O21  1  0.23492900  0.50000000  0.71490000  1
  O  O22  1  0.76507100  0.50000000  0.28510000  1
  O  O23  1  0.50940400  0.74687200  0.28694600  1
  O  O24  1  0.50940400  0.25312800  0.28694600  1
  O  O25  1  0.73624900  0.50000000  0.72219500  1
  O  O26  1  0.76375100  0.00000000  0.27780500  1
  O  O27  1  0.99059600  0.24687200  0.71305400  1
  O  O28  1  0.99059600  0.75312800  0.71305400  1
  O  O29  1  0.73492900  0.00000000  0.71490000  1
