# generated using pymatgen
data_Ni(IO3)2
_symmetry_space_group_name_H-M   'P 1'
_cell_length_a   5.48657365
_cell_length_b   5.32103404
_cell_length_c   9.35908694
_cell_angle_alpha   90.00000000
_cell_angle_beta   90.12456284
_cell_angle_gamma   90.00000000
_symmetry_Int_Tables_number   1
_chemical_formula_structural   Ni(IO3)2
_chemical_formula_sum   'Ni2 I4 O12'
_cell_volume   273.23083287
_cell_formula_units_Z   2
loop_
 _symmetry_equiv_pos_site_id
 _symmetry_equiv_pos_as_xyz
  1  'x, y, z'
loop_
 _atom_site_type_symbol
 _atom_site_label
 _atom_site_symmetry_multiplicity
 _atom_site_fract_x
 _atom_site_fract_y
 _atom_site_fract_z
 _atom_site_occupancy
  Ni  Ni0  1  0.26665450  0.41436800  0.75316300  1
  Ni  Ni1  1  0.73334550  0.91436800  0.24683700  1
  I  I2  1  0.76323150  0.48839350  0.56618550  1
  I  I3  1  0.23676850  0.98839350  0.43381450  1
  I  I4  1  0.77079250  0.01615300  0.90005200  1
  I  I5  1  0.22920750  0.51615300  0.09994800  1
  O  O6  1  0.15036250  0.20249050  0.58048150  1
  O  O7  1  0.84963750  0.70249050  0.41951850  1
  O  O8  1  0.05514750  0.20210100  0.90012700  1
  O  O9  1  0.94485250  0.70210100  0.09987300  1
  O  O10  1  0.96690150  0.63281950  0.70015900  1
  O  O11  1  0.03309850  0.13281950  0.29984100  1
  O  O12  1  0.64344350  0.13106000  0.06925750  1
  O  O13  1  0.35655650  0.63106000  0.93074250  1
  O  O14  1  0.58938450  0.20346850  0.77208900  1
  O  O15  1  0.41061550  0.70346850  0.22791100  1
  O  O16  1  0.52102750  0.14598950  0.37789200  1
  O  O17  1  0.47897250  0.64598950  0.62210800  1
