# generated using pymatgen
data_CrSn3(PO4)6
_symmetry_space_group_name_H-M   'P 1'
_cell_length_a   8.70393190
_cell_length_b   8.70393190
_cell_length_c   22.24975221
_cell_angle_alpha   90.00000000
_cell_angle_beta   90.00000000
_cell_angle_gamma   120.00000000
_symmetry_Int_Tables_number   1
_chemical_formula_structural   CrSn3(PO4)6
_chemical_formula_sum   'Cr3 Sn9 P18 O72'
_cell_volume   1459.77788100
_cell_formula_units_Z   3
loop_
 _symmetry_equiv_pos_site_id
 _symmetry_equiv_pos_as_xyz
  1  'x, y, z'
loop_
 _atom_site_type_symbol
 _atom_site_label
 _atom_site_symmetry_multiplicity
 _atom_site_fract_x
 _atom_site_fract_y
 _atom_site_fract_z
 _atom_site_occupancy
  Cr  Cr0  1  0.66666667  0.33333333  0.18995533  1
  Cr  Cr1  1  0.33333333  0.66666667  0.52328867  1
  Cr  Cr2  1  0.00000000  0.00000000  0.85662200  1
  Sn  Sn3  1  0.00000000  0.00000000  0.14316000  1
  Sn  Sn4  1  0.33333333  0.66666667  0.02483067  1
  Sn  Sn5  1  0.33333333  0.66666667  0.30975267  1
  Sn  Sn6  1  0.66666667  0.33333333  0.47649333  1
  Sn  Sn7  1  0.00000000  0.00000000  0.35816400  1
  Sn  Sn8  1  0.00000000  0.00000000  0.64308600  1
  Sn  Sn9  1  0.33333333  0.66666667  0.80982667  1
  Sn  Sn10  1  0.66666667  0.33333333  0.69149733  1
  Sn  Sn11  1  0.66666667  0.33333333  0.97641933  1
  P  P12  1  0.95106233  0.33461667  0.08446567  1
  P  P13  1  0.38355433  0.04893767  0.08446567  1
  P  P14  1  0.66538333  0.61644567  0.08446567  1
  P  P15  1  0.99499433  0.70650267  0.24921667  1
  P  P16  1  0.29349733  0.28849167  0.24921667  1
  P  P17  1  0.71150833  0.00500567  0.24921667  1
  P  P18  1  0.61772900  0.66795000  0.41779900  1
  P  P19  1  0.05022100  0.38227100  0.41779900  1
  P  P20  1  0.33205000  0.94977900  0.41779900  1
  P  P21  1  0.66166100  0.03983600  0.58255000  1
  P  P22  1  0.96016400  0.62182500  0.58255000  1
  P  P23  1  0.37817500  0.33833900  0.58255000  1
  P  P24  1  0.28439567  0.00128333  0.75113233  1
  P  P25  1  0.71688767  0.71560433  0.75113233  1
  P  P26  1  0.99871667  0.28311233  0.75113233  1
  P  P27  1  0.32832767  0.37316933  0.91588333  1
  P  P28  1  0.62683067  0.95515833  0.91588333  1
  P  P29  1  0.04484167  0.67167233  0.91588333  1
  O  O30  1  0.82487033  0.04305067  0.30616567  1
  O  O31  1  0.95694933  0.78181967  0.30616567  1
  O  O32  1  0.96960767  0.17018433  0.09023933  1
  O  O33  1  0.21818033  0.17512967  0.30616567  1
  O  O34  1  0.13228167  0.50478733  0.08212433  1
  O  O35  1  0.85230667  0.35435233  0.14121333  1
  O  O36  1  0.20057667  0.03039233  0.09023933  1
  O  O37  1  0.37250567  0.86771833  0.08212433  1
  O  O38  1  0.49521267  0.62749433  0.08212433  1
  O  O39  1  0.02375567  0.81759333  0.19304633  1
  O  O40  1  0.82620600  0.51682600  0.23818100  1
  O  O41  1  0.18240667  0.20616233  0.19304633  1
  O  O42  1  0.50204567  0.14769333  0.14121333  1
  O  O43  1  0.82981567  0.79942333  0.09023933  1
  O  O44  1  0.64564767  0.49795433  0.14121333  1
  O  O45  1  0.15467267  0.67965433  0.25441033  1
  O  O46  1  0.32034567  0.47501833  0.25441033  1
  O  O47  1  0.48317400  0.30938000  0.23818100  1
  O  O48  1  0.79383767  0.97624433  0.19304633  1
  O  O49  1  0.52498167  0.84532733  0.25441033  1
  O  O50  1  0.46276600  0.15645700  0.02726000  1
  O  O51  1  0.69062000  0.17379400  0.23818100  1
  O  O52  1  0.69369100  0.53723400  0.02726000  1
  O  O53  1  0.84354300  0.30630900  0.02726000  1
  O  O54  1  0.49153700  0.37638400  0.63949900  1
  O  O55  1  0.62361600  0.11515300  0.63949900  1
  O  O56  1  0.63627433  0.50351767  0.42357267  1
  O  O57  1  0.88484700  0.50846300  0.63949900  1
  O  O58  1  0.79894833  0.83812067  0.41545767  1
  O  O59  1  0.51897333  0.68768567  0.47454667  1
  O  O60  1  0.86724333  0.36372567  0.42357267  1
  O  O61  1  0.03917233  0.20105167  0.41545767  1
  O  O62  1  0.16187933  0.96082767  0.41545767  1
  O  O63  1  0.69042233  0.15092667  0.52637967  1
  O  O64  1  0.49287267  0.85015933  0.57151433  1
  O  O65  1  0.84907333  0.53949567  0.52637967  1
  O  O66  1  0.16871233  0.48102667  0.47454667  1
  O  O67  1  0.49648233  0.13275667  0.42357267  1
  O  O68  1  0.31231433  0.83128767  0.47454667  1
  O  O69  1  0.82133933  0.01298767  0.58774367  1
  O  O70  1  0.98701233  0.80835167  0.58774367  1
  O  O71  1  0.14984067  0.64271333  0.57151433  1
  O  O72  1  0.46050433  0.30957767  0.52637967  1
  O  O73  1  0.19164833  0.17866067  0.58774367  1
  O  O74  1  0.12943267  0.48979033  0.36059333  1
  O  O75  1  0.35728667  0.50712733  0.57151433  1
  O  O76  1  0.36035767  0.87056733  0.36059333  1
  O  O77  1  0.51020967  0.63964233  0.36059333  1
  O  O78  1  0.15820367  0.70971733  0.97283233  1
  O  O79  1  0.29028267  0.44848633  0.97283233  1
  O  O80  1  0.30294100  0.83685100  0.75690600  1
  O  O81  1  0.55151367  0.84179633  0.97283233  1
  O  O82  1  0.46561500  0.17145400  0.74879100  1
  O  O83  1  0.18564000  0.02101900  0.80788000  1
  O  O84  1  0.53391000  0.69705900  0.75690600  1
  O  O85  1  0.70583900  0.53438500  0.74879100  1
  O  O86  1  0.82854600  0.29416100  0.74879100  1
  O  O87  1  0.35708900  0.48426000  0.85971300  1
  O  O88  1  0.15953933  0.18349267  0.90484767  1
  O  O89  1  0.51574000  0.87282900  0.85971300  1
  O  O90  1  0.83537900  0.81436000  0.80788000  1
  O  O91  1  0.16314900  0.46609000  0.75690600  1
  O  O92  1  0.97898100  0.16462100  0.80788000  1
  O  O93  1  0.48800600  0.34632100  0.92107700  1
  O  O94  1  0.65367900  0.14168500  0.92107700  1
  O  O95  1  0.81650733  0.97604667  0.90484767  1
  O  O96  1  0.12717100  0.64291100  0.85971300  1
  O  O97  1  0.85831500  0.51199400  0.92107700  1
  O  O98  1  0.79609933  0.82312367  0.69392667  1
  O  O99  1  0.02395333  0.84046067  0.90484767  1
  O  O100  1  0.02702433  0.20390067  0.69392667  1
  O  O101  1  0.17687633  0.97297567  0.69392667  1
