# generated using pymatgen
data_LiTi3MnCr(PO4)6
_symmetry_space_group_name_H-M   'P 1'
_cell_length_a   8.61914021
_cell_length_b   8.61914021
_cell_length_c   21.14946858
_cell_angle_alpha   90.00000000
_cell_angle_beta   90.00000000
_cell_angle_gamma   120.00000000
_symmetry_Int_Tables_number   1
_chemical_formula_structural   LiTi3MnCr(PO4)6
_chemical_formula_sum   'Li3 Ti9 Mn3 Cr3 P18 O72'
_cell_volume   1360.68620704
_cell_formula_units_Z   3
loop_
 _symmetry_equiv_pos_site_id
 _symmetry_equiv_pos_as_xyz
  1  'x, y, z'
loop_
 _atom_site_type_symbol
 _atom_site_label
 _atom_site_symmetry_multiplicity
 _atom_site_fract_x
 _atom_site_fract_y
 _atom_site_fract_z
 _atom_site_occupancy
  Li  Li0  1  0.00000000  0.00000000  0.00024000  1
  Li  Li1  1  0.66666667  0.33333333  0.33357333  1
  Li  Li2  1  0.33333333  0.66666667  0.66690667  1
  Ti  Ti3  1  0.66666667  0.33333333  0.19261333  1
  Ti  Ti4  1  0.33333333  0.66666667  0.31153867  1
  Ti  Ti5  1  0.00000000  0.00000000  0.14185500  1
  Ti  Ti6  1  0.33333333  0.66666667  0.52594667  1
  Ti  Ti7  1  0.00000000  0.00000000  0.64487200  1
  Ti  Ti8  1  0.66666667  0.33333333  0.47518833  1
  Ti  Ti9  1  0.00000000  0.00000000  0.85928000  1
  Ti  Ti10  1  0.66666667  0.33333333  0.97820533  1
  Ti  Ti11  1  0.33333333  0.66666667  0.80852167  1
  Mn  Mn12  1  0.33333333  0.66666667  0.16602367  1
  Mn  Mn13  1  0.00000000  0.00000000  0.49935700  1
  Mn  Mn14  1  0.66666667  0.33333333  0.83269033  1
  Cr  Cr15  1  0.33333333  0.66666667  0.02360367  1
  Cr  Cr16  1  0.00000000  0.00000000  0.35693700  1
  Cr  Cr17  1  0.66666667  0.33333333  0.69027033  1
  P  P18  1  0.28990400  0.00025300  0.25009000  1
  P  P19  1  0.66678800  0.04127000  0.08398500  1
  P  P20  1  0.95873000  0.62551800  0.08398500  1
  P  P21  1  0.71034900  0.71009600  0.25009000  1
  P  P22  1  0.99974700  0.28965100  0.25009000  1
  P  P23  1  0.37448200  0.33321200  0.08398500  1
  P  P24  1  0.95657067  0.33358633  0.58342333  1
  P  P25  1  0.33345467  0.37460333  0.41731833  1
  P  P26  1  0.62539667  0.95885133  0.41731833  1
  P  P27  1  0.37701567  0.04342933  0.58342333  1
  P  P28  1  0.66641367  0.62298433  0.58342333  1
  P  P29  1  0.04114867  0.66654533  0.41731833  1
  P  P30  1  0.62323733  0.66691967  0.91675667  1
  P  P31  1  0.00012133  0.70793667  0.75065167  1
  P  P32  1  0.29206333  0.29218467  0.75065167  1
  P  P33  1  0.04368233  0.37676267  0.91675667  1
  P  P34  1  0.33308033  0.95631767  0.91675667  1
  P  P35  1  0.70781533  0.99987867  0.75065167  1
  O  O36  1  0.48015433  0.16701167  0.25137467  1
  O  O37  1  0.18568467  0.99603033  0.18978433  1
  O  O38  1  0.97659200  0.81215500  0.07997200  1
  O  O39  1  0.99666733  0.19293867  0.31017167  1
  O  O40  1  0.31103067  0.83017233  0.24542933  1
  O  O41  1  0.49701500  0.85375200  0.08836100  1
  O  O42  1  0.83556300  0.02340800  0.07997200  1
  O  O43  1  0.48027767  0.33567733  0.14284333  1
  O  O44  1  0.85431267  0.52249833  0.02380833  1
  O  O45  1  0.85539967  0.51972233  0.14284333  1
  O  O46  1  0.47750167  0.33181433  0.02380833  1
  O  O47  1  0.14624800  0.64326300  0.08836100  1
  O  O48  1  0.51914167  0.68896933  0.24542933  1
  O  O49  1  0.19627133  0.00333267  0.31017167  1
  O  O50  1  0.81034567  0.81431533  0.18978433  1
  O  O51  1  0.80706133  0.80372867  0.31017167  1
  O  O52  1  0.83298833  0.31314267  0.25137467  1
  O  O53  1  0.16982767  0.48085833  0.24542933  1
  O  O54  1  0.35673700  0.50298500  0.08836100  1
  O  O55  1  0.66818567  0.14568733  0.02380833  1
  O  O56  1  0.66432267  0.14460033  0.14284333  1
  O  O57  1  0.00396967  0.18965433  0.18978433  1
  O  O58  1  0.68685733  0.51984567  0.25137467  1
  O  O59  1  0.18784500  0.16443700  0.07997200  1
  O  O60  1  0.14682100  0.50034500  0.58470800  1
  O  O61  1  0.85235133  0.32936367  0.52311767  1
  O  O62  1  0.64325867  0.14548833  0.41330533  1
  O  O63  1  0.66333400  0.52627200  0.64350500  1
  O  O64  1  0.97769733  0.16350567  0.57876267  1
  O  O65  1  0.16368167  0.18708533  0.42169433  1
  O  O66  1  0.50222967  0.35674133  0.41330533  1
  O  O67  1  0.14694433  0.66901067  0.47617667  1
  O  O68  1  0.52097933  0.85583167  0.35714167  1
  O  O69  1  0.52206633  0.85305567  0.47617667  1
  O  O70  1  0.14416833  0.66514767  0.35714167  1
  O  O71  1  0.81291467  0.97659633  0.42169433  1
  O  O72  1  0.18580833  0.02230267  0.57876267  1
  O  O73  1  0.86293800  0.33666600  0.64350500  1
  O  O74  1  0.47701233  0.14764867  0.52311767  1
  O  O75  1  0.47372800  0.13706200  0.64350500  1
  O  O76  1  0.49965500  0.64647600  0.58470800  1
  O  O77  1  0.83649433  0.81419167  0.57876267  1
  O  O78  1  0.02340367  0.83631833  0.42169433  1
  O  O79  1  0.33485233  0.47902067  0.35714167  1
  O  O80  1  0.33098933  0.47793367  0.47617667  1
  O  O81  1  0.67063633  0.52298767  0.52311767  1
  O  O82  1  0.35352400  0.85317900  0.58470800  1
  O  O83  1  0.85451167  0.49777033  0.41330533  1
  O  O84  1  0.81348767  0.83367833  0.91804133  1
  O  O85  1  0.51901800  0.66269700  0.85645100  1
  O  O86  1  0.30992533  0.47882167  0.74663867  1
  O  O87  1  0.33000067  0.85960533  0.97683833  1
  O  O88  1  0.64436400  0.49683900  0.91209600  1
  O  O89  1  0.83034833  0.52041867  0.75502767  1
  O  O90  1  0.16889633  0.69007467  0.74663867  1
  O  O91  1  0.81361100  0.00234400  0.80951000  1
  O  O92  1  0.18764600  0.18916500  0.69047500  1
  O  O93  1  0.18873300  0.18638900  0.80951000  1
  O  O94  1  0.81083500  0.99848100  0.69047500  1
  O  O95  1  0.47958133  0.30992967  0.75502767  1
  O  O96  1  0.85247500  0.35563600  0.91209600  1
  O  O97  1  0.52960467  0.66999933  0.97683833  1
  O  O98  1  0.14367900  0.48098200  0.85645100  1
  O  O99  1  0.14039467  0.47039533  0.97683833  1
  O  O100  1  0.16632167  0.97980933  0.91804133  1
  O  O101  1  0.50316100  0.14752500  0.91209600  1
  O  O102  1  0.69007033  0.16965167  0.75502767  1
  O  O103  1  0.00151900  0.81235400  0.69047500  1
  O  O104  1  0.99765600  0.81126700  0.80951000  1
  O  O105  1  0.33730300  0.85632100  0.85645100  1
  O  O106  1  0.02019067  0.18651233  0.91804133  1
  O  O107  1  0.52117833  0.83110367  0.74663867  1
