# generated using pymatgen
data_Li2MnPHO5
_symmetry_space_group_name_H-M   'P 1'
_cell_length_a   5.24022411
_cell_length_b   5.70164726
_cell_length_c   7.78040534
_cell_angle_alpha   108.49256210
_cell_angle_beta   107.77263291
_cell_angle_gamma   95.69028022
_symmetry_Int_Tables_number   1
_chemical_formula_structural   Li2MnPHO5
_chemical_formula_sum   'Li4 Mn2 P2 H2 O10'
_cell_volume   204.93551435
_cell_formula_units_Z   2
loop_
 _symmetry_equiv_pos_site_id
 _symmetry_equiv_pos_as_xyz
  1  'x, y, z'
loop_
 _atom_site_type_symbol
 _atom_site_label
 _atom_site_symmetry_multiplicity
 _atom_site_fract_x
 _atom_site_fract_y
 _atom_site_fract_z
 _atom_site_occupancy
  Li  Li0  1  0.22953650  0.59329600  0.28616500  1
  Li  Li1  1  0.54121150  0.86571700  0.18423200  1
  Li  Li2  1  0.78819300  0.37868100  0.85040400  1
  Li  Li3  1  0.75117200  0.59312300  0.58294900  1
  Mn  Mn4  1  0.99383250  0.99321700  0.99527400  1
  Mn  Mn5  1  0.04779400  0.02345650  0.52095350  1
  P  P6  1  0.65863800  0.37440400  0.21738400  1
  P  P7  1  0.33002450  0.62179050  0.75156750  1
  H  H8  1  0.64024300  0.96573600  0.65583900  1
  H  H9  1  0.34150750  0.07991500  0.34077000  1
  O  O10  1  0.86675400  0.35985650  0.11180850  1
  O  O11  1  0.35958850  0.27095050  0.07962750  1
  O  O12  1  0.29882800  0.74122300  0.59230900  1
  O  O13  1  0.68070300  0.66058100  0.33949400  1
  O  O14  1  0.83916800  0.03628100  0.71679700  1
  O  O15  1  0.19161400  0.92864800  0.26624600  1
  O  O16  1  0.38371750  0.35211050  0.66758350  1
  O  O17  1  0.73041050  0.23423000  0.36442800  1
  O  O18  1  0.58606700  0.77303350  0.93676950  1
  O  O19  1  0.06711250  0.61675000  0.80643400  1
