# generated using pymatgen
data_Li7Fe3(SiO6)2
_symmetry_space_group_name_H-M   'P 1'
_cell_length_a   4.98082800
_cell_length_b   8.62610200
_cell_length_c   9.86122926
_cell_angle_alpha   90.00000000
_cell_angle_beta   99.67669169
_cell_angle_gamma   90.00000000
_symmetry_Int_Tables_number   1
_chemical_formula_structural   Li7Fe3(SiO6)2
_chemical_formula_sum   'Li14 Fe6 Si4 O24'
_cell_volume   417.66072404
_cell_formula_units_Z   2
loop_
 _symmetry_equiv_pos_site_id
 _symmetry_equiv_pos_as_xyz
  1  'x, y, z'
loop_
 _atom_site_type_symbol
 _atom_site_label
 _atom_site_symmetry_multiplicity
 _atom_site_fract_x
 _atom_site_fract_y
 _atom_site_fract_z
 _atom_site_occupancy
  Li  Li0  1  0.25283200  0.00000000  0.74339700  1
  Li  Li1  1  0.25475550  0.83600350  0.25660800  1
  Li  Li2  1  0.50000000  0.00000000  0.50000000  1
  Li  Li3  1  0.74524450  0.83600350  0.74339200  1
  Li  Li4  1  0.74716800  0.00000000  0.25660300  1
  Li  Li5  1  0.25475550  0.16399650  0.25660800  1
  Li  Li6  1  0.74524450  0.16399650  0.74339200  1
  Li  Li7  1  0.75283200  0.50000000  0.74339700  1
  Li  Li8  1  0.75475550  0.33600350  0.25660800  1
  Li  Li9  1  0.00000000  0.50000000  0.50000000  1
  Li  Li10  1  0.24524450  0.33600350  0.74339200  1
  Li  Li11  1  0.24716800  0.50000000  0.25660300  1
  Li  Li12  1  0.75475550  0.66399650  0.25660800  1
  Li  Li13  1  0.24524450  0.66399650  0.74339200  1
  Fe  Fe14  1  0.00000000  0.00000000  0.00000000  1
  Fe  Fe15  1  0.50000000  0.83288100  0.00000000  1
  Fe  Fe16  1  0.50000000  0.16711900  0.00000000  1
  Fe  Fe17  1  0.50000000  0.50000000  0.00000000  1
  Fe  Fe18  1  0.00000000  0.33288100  0.00000000  1
  Fe  Fe19  1  0.00000000  0.66711900  0.00000000  1
  Si  Si20  1  0.50000000  0.66669600  0.50000000  1
  Si  Si21  1  0.50000000  0.33330400  0.50000000  1
  Si  Si22  1  0.00000000  0.16669600  0.50000000  1
  Si  Si23  1  0.00000000  0.83330400  0.50000000  1
  O  O24  1  0.09164700  0.00000000  0.39761400  1
  O  O25  1  0.34696950  0.81282150  0.60241400  1
  O  O26  1  0.62750250  0.33359350  0.88143800  1
  O  O27  1  0.37416300  0.00000000  0.12133600  1
  O  O28  1  0.37249750  0.66640650  0.11856200  1
  O  O29  1  0.65303050  0.81282150  0.39758600  1
  O  O30  1  0.62583700  0.00000000  0.87866400  1
  O  O31  1  0.90835300  0.00000000  0.60238600  1
  O  O32  1  0.62750250  0.66640650  0.88143800  1
  O  O33  1  0.34696950  0.18717850  0.60241400  1
  O  O34  1  0.37249750  0.33359350  0.11856200  1
  O  O35  1  0.65303050  0.18717850  0.39758600  1
  O  O36  1  0.59164700  0.50000000  0.39761400  1
  O  O37  1  0.84696950  0.31282150  0.60241400  1
  O  O38  1  0.12750250  0.83359350  0.88143800  1
  O  O39  1  0.87416300  0.50000000  0.12133600  1
  O  O40  1  0.87249750  0.16640650  0.11856200  1
  O  O41  1  0.15303050  0.31282150  0.39758600  1
  O  O42  1  0.12583700  0.50000000  0.87866400  1
  O  O43  1  0.40835300  0.50000000  0.60238600  1
  O  O44  1  0.12750250  0.16640650  0.88143800  1
  O  O45  1  0.84696950  0.68717850  0.60241400  1
  O  O46  1  0.87249750  0.83359350  0.11856200  1
  O  O47  1  0.15303050  0.68717850  0.39758600  1
