# generated using pymatgen
data_MnP2O7
_symmetry_space_group_name_H-M   'P 1'
_cell_length_a   4.75839137
_cell_length_b   6.83822538
_cell_length_c   7.91388528
_cell_angle_alpha   91.41570130
_cell_angle_beta   92.96375549
_cell_angle_gamma   105.54162914
_symmetry_Int_Tables_number   1
_chemical_formula_structural   MnP2O7
_chemical_formula_sum   'Mn2 P4 O14'
_cell_volume   247.56307741
_cell_formula_units_Z   2
loop_
 _symmetry_equiv_pos_site_id
 _symmetry_equiv_pos_as_xyz
  1  'x, y, z'
loop_
 _atom_site_type_symbol
 _atom_site_label
 _atom_site_symmetry_multiplicity
 _atom_site_fract_x
 _atom_site_fract_y
 _atom_site_fract_z
 _atom_site_occupancy
  Mn  Mn0  1  0.00000000  0.00000000  0.00000000  1
  Mn  Mn1  1  0.50000000  0.50000000  0.50000000  1
  P  P2  1  0.52033800  0.13822600  0.76295000  1
  P  P3  1  0.47966200  0.86177400  0.23705000  1
  P  P4  1  0.11253350  0.74661900  0.68899250  1
  P  P5  1  0.88746650  0.25338100  0.31100750  1
  O  O6  1  0.35416550  0.16819750  0.91830950  1
  O  O7  1  0.64583450  0.83180250  0.08169050  1
  O  O8  1  0.04420500  0.76466800  0.87600400  1
  O  O9  1  0.95579500  0.23533200  0.12399600  1
  O  O10  1  0.79212050  0.06478550  0.80551150  1
  O  O11  1  0.20787950  0.93521450  0.19448850  1
  O  O12  1  0.29840850  0.59570550  0.67737750  1
  O  O13  1  0.70159150  0.40429450  0.32262250  1
  O  O14  1  0.62048200  0.32809750  0.66038200  1
  O  O15  1  0.37951800  0.67190250  0.33961800  1
  O  O16  1  0.30572950  0.96712550  0.63767450  1
  O  O17  1  0.69427050  0.03287450  0.36232550  1
  O  O18  1  0.84951900  0.70911650  0.56110000  1
  O  O19  1  0.15048100  0.29088350  0.43890000  1
