# generated using pymatgen
data_Li2CrP3O10
_symmetry_space_group_name_H-M   'P 1'
_cell_length_a   14.25234600
_cell_length_b   7.19352200
_cell_length_c   9.57119159
_cell_angle_alpha   90.00000000
_cell_angle_beta   126.89008935
_cell_angle_gamma   90.00000000
_symmetry_Int_Tables_number   1
_chemical_formula_structural   Li2CrP3O10
_chemical_formula_sum   'Li8 Cr4 P12 O40'
_cell_volume   784.81826202
_cell_formula_units_Z   4
loop_
 _symmetry_equiv_pos_site_id
 _symmetry_equiv_pos_as_xyz
  1  'x, y, z'
loop_
 _atom_site_type_symbol
 _atom_site_label
 _atom_site_symmetry_multiplicity
 _atom_site_fract_x
 _atom_site_fract_y
 _atom_site_fract_z
 _atom_site_occupancy
  Li  Li0  1  0.77054050  0.51291450  0.95908100  1
  Li  Li1  1  0.27054050  0.98708550  0.45908100  1
  Li  Li2  1  0.72945950  0.01291450  0.54091900  1
  Li  Li3  1  0.22945950  0.48708550  0.04091900  1
  Li  Li4  1  0.27054050  0.01291450  0.95908100  1
  Li  Li5  1  0.77054050  0.48708550  0.45908100  1
  Li  Li6  1  0.22945950  0.51291450  0.54091900  1
  Li  Li7  1  0.72945950  0.98708550  0.04091900  1
  Cr  Cr8  1  0.50000000  0.16370300  0.75000000  1
  Cr  Cr9  1  0.50000000  0.83629700  0.25000000  1
  Cr  Cr10  1  0.00000000  0.66370300  0.75000000  1
  Cr  Cr11  1  0.00000000  0.33629700  0.25000000  1
  P  P12  1  0.88197150  0.31521150  0.81637000  1
  P  P13  1  0.38197150  0.18478850  0.31637000  1
  P  P14  1  0.50000000  0.54276500  0.75000000  1
  P  P15  1  0.50000000  0.45723500  0.25000000  1
  P  P16  1  0.61802850  0.81521150  0.68363000  1
  P  P17  1  0.11802850  0.68478850  0.18363000  1
  P  P18  1  0.38197150  0.81521150  0.81637000  1
  P  P19  1  0.88197150  0.68478850  0.31637000  1
  P  P20  1  0.00000000  0.04276500  0.75000000  1
  P  P21  1  0.00000000  0.95723500  0.25000000  1
  P  P22  1  0.11802850  0.31521150  0.68363000  1
  P  P23  1  0.61802850  0.18478850  0.18363000  1
  O  O24  1  0.60682450  0.41443950  0.84353900  1
  O  O25  1  0.60682450  0.58556050  0.34353900  1
  O  O26  1  0.73028000  0.71264000  0.80436600  1
  O  O27  1  0.90882400  0.37503600  0.99003400  1
  O  O28  1  0.38626300  0.98104100  0.71664600  1
  O  O29  1  0.23028000  0.78736000  0.30436600  1
  O  O30  1  0.49607450  0.67862850  0.87778000  1
  O  O31  1  0.40882400  0.12496400  0.49003400  1
  O  O32  1  0.38626300  0.01895900  0.21664600  1
  O  O33  1  0.50392550  0.67862850  0.62222000  1
  O  O34  1  0.49607450  0.32137150  0.37778000  1
  O  O35  1  0.61373700  0.98104100  0.78335400  1
  O  O36  1  0.59117600  0.87503600  0.50996600  1
  O  O37  1  0.50392550  0.32137150  0.12222000  1
  O  O38  1  0.76972000  0.21264000  0.69563400  1
  O  O39  1  0.61373700  0.01895900  0.28335400  1
  O  O40  1  0.09117600  0.62496400  0.00996600  1
  O  O41  1  0.26972000  0.28736000  0.19563400  1
  O  O42  1  0.39317550  0.41443950  0.65646100  1
  O  O43  1  0.39317550  0.58556050  0.15646100  1
  O  O44  1  0.10682450  0.91443950  0.84353900  1
  O  O45  1  0.10682450  0.08556050  0.34353900  1
  O  O46  1  0.23028000  0.21264000  0.80436600  1
  O  O47  1  0.40882400  0.87503600  0.99003400  1
  O  O48  1  0.88626300  0.48104100  0.71664600  1
  O  O49  1  0.73028000  0.28736000  0.30436600  1
  O  O50  1  0.99607450  0.17862850  0.87778000  1
  O  O51  1  0.90882400  0.62496400  0.49003400  1
  O  O52  1  0.88626300  0.51895900  0.21664600  1
  O  O53  1  0.00392550  0.17862850  0.62222000  1
  O  O54  1  0.99607450  0.82137150  0.37778000  1
  O  O55  1  0.11373700  0.48104100  0.78335400  1
  O  O56  1  0.09117600  0.37503600  0.50996600  1
  O  O57  1  0.00392550  0.82137150  0.12222000  1
  O  O58  1  0.26972000  0.71264000  0.69563400  1
  O  O59  1  0.11373700  0.51895900  0.28335400  1
  O  O60  1  0.59117600  0.12496400  0.00996600  1
  O  O61  1  0.76972000  0.78736000  0.19563400  1
  O  O62  1  0.89317550  0.91443950  0.65646100  1
  O  O63  1  0.89317550  0.08556050  0.15646100  1
