# generated using pymatgen
data_Li4Ti2V3Cr3O16
_symmetry_space_group_name_H-M   'P 1'
_cell_length_a   10.22013600
_cell_length_b   5.90464800
_cell_length_c   9.54883008
_cell_angle_alpha   90.00000000
_cell_angle_beta   90.27884072
_cell_angle_gamma   90.00000000
_symmetry_Int_Tables_number   1
_chemical_formula_structural   Li4Ti2V3Cr3O16
_chemical_formula_sum   'Li8 Ti4 V6 Cr6 O32'
_cell_volume   576.22979409
_cell_formula_units_Z   2
loop_
 _symmetry_equiv_pos_site_id
 _symmetry_equiv_pos_as_xyz
  1  'x, y, z'
loop_
 _atom_site_type_symbol
 _atom_site_label
 _atom_site_symmetry_multiplicity
 _atom_site_fract_x
 _atom_site_fract_y
 _atom_site_fract_z
 _atom_site_occupancy
  Li  Li0  1  0.32928500  0.00000000  0.10612200  1
  Li  Li1  1  0.00167700  0.00000000  0.00612900  1
  Li  Li2  1  0.00257900  0.00000000  0.50490200  1
  Li  Li3  1  0.66418700  0.00000000  0.60909700  1
  Li  Li4  1  0.82928500  0.50000000  0.10612200  1
  Li  Li5  1  0.50167700  0.50000000  0.00612900  1
  Li  Li6  1  0.50257900  0.50000000  0.50490200  1
  Li  Li7  1  0.16418700  0.50000000  0.60909700  1
  Ti  Ti8  1  0.33410400  0.00000000  0.50356300  1
  Ti  Ti9  1  0.66904100  0.00000000  0.00226300  1
  Ti  Ti10  1  0.83410400  0.50000000  0.50356300  1
  Ti  Ti11  1  0.16904100  0.50000000  0.00226300  1
  V  V12  1  0.58641750  0.23327650  0.28277900  1
  V  V13  1  0.17452100  0.00000000  0.77980400  1
  V  V14  1  0.58641750  0.76672350  0.28277900  1
  V  V15  1  0.08641750  0.73327650  0.28277900  1
  V  V16  1  0.67452100  0.50000000  0.77980400  1
  V  V17  1  0.08641750  0.26672350  0.28277900  1
  Cr  Cr18  1  0.41551250  0.24402150  0.78584900  1
  Cr  Cr19  1  0.41551250  0.75597850  0.78584900  1
  Cr  Cr20  1  0.83198300  0.00000000  0.28698200  1
  Cr  Cr21  1  0.91551250  0.74402150  0.78584900  1
  Cr  Cr22  1  0.91551250  0.25597850  0.78584900  1
  Cr  Cr23  1  0.33198300  0.50000000  0.28698200  1
  O  O24  1  0.41806250  0.24659650  0.40500100  1
  O  O25  1  0.47825900  0.00000000  0.65977900  1
  O  O26  1  0.32427400  0.00000000  0.89455200  1
  O  O27  1  0.00708900  0.00000000  0.69361600  1
  O  O28  1  0.00525800  0.00000000  0.19500600  1
  O  O29  1  0.41806250  0.75340350  0.40500100  1
  O  O30  1  0.25760800  0.21879800  0.65764200  1
  O  O31  1  0.25760800  0.78120200  0.65764200  1
  O  O32  1  0.83318100  0.00000000  0.90505100  1
  O  O33  1  0.17095500  0.00000000  0.40464100  1
  O  O34  1  0.73822500  0.21846500  0.15890600  1
  O  O35  1  0.73822500  0.78153500  0.15890600  1
  O  O36  1  0.66566300  0.00000000  0.39922200  1
  O  O37  1  0.58566300  0.24774000  0.90403500  1
  O  O38  1  0.51581300  0.00000000  0.15281700  1
  O  O39  1  0.58566300  0.75226000  0.90403500  1
  O  O40  1  0.91806250  0.74659650  0.40500100  1
  O  O41  1  0.97825900  0.50000000  0.65977900  1
  O  O42  1  0.82427400  0.50000000  0.89455200  1
  O  O43  1  0.50708900  0.50000000  0.69361600  1
  O  O44  1  0.50525800  0.50000000  0.19500600  1
  O  O45  1  0.91806250  0.25340350  0.40500100  1
  O  O46  1  0.75760800  0.71879800  0.65764200  1
  O  O47  1  0.75760800  0.28120200  0.65764200  1
  O  O48  1  0.33318100  0.50000000  0.90505100  1
  O  O49  1  0.67095500  0.50000000  0.40464100  1
  O  O50  1  0.23822500  0.71846500  0.15890600  1
  O  O51  1  0.23822500  0.28153500  0.15890600  1
  O  O52  1  0.16566300  0.50000000  0.39922200  1
  O  O53  1  0.08566300  0.74774000  0.90403500  1
  O  O54  1  0.01581300  0.50000000  0.15281700  1
  O  O55  1  0.08566300  0.25226000  0.90403500  1
