# generated using pymatgen
data_MnCo5O12
_symmetry_space_group_name_H-M   'P 1'
_cell_length_a   4.92111352
_cell_length_b   8.53821748
_cell_length_c   9.48269762
_cell_angle_alpha   90.00000000
_cell_angle_beta   90.09917432
_cell_angle_gamma   90.00000000
_symmetry_Int_Tables_number   1
_chemical_formula_structural   MnCo5O12
_chemical_formula_sum   'Mn2 Co10 O24'
_cell_volume   398.43900610
_cell_formula_units_Z   2
loop_
 _symmetry_equiv_pos_site_id
 _symmetry_equiv_pos_as_xyz
  1  'x, y, z'
loop_
 _atom_site_type_symbol
 _atom_site_label
 _atom_site_symmetry_multiplicity
 _atom_site_fract_x
 _atom_site_fract_y
 _atom_site_fract_z
 _atom_site_occupancy
  Mn  Mn0  1  0.00000000  0.00000000  0.00000000  1
  Mn  Mn1  1  0.50000000  0.50000000  0.00000000  1
  Co  Co2  1  0.50000000  0.66669350  0.50000000  1
  Co  Co3  1  0.00000000  0.66665550  0.00000000  1
  Co  Co4  1  0.50000000  0.83334450  0.00000000  1
  Co  Co5  1  0.00000000  0.83330650  0.50000000  1
  Co  Co6  1  0.50000000  0.00000000  0.50000000  1
  Co  Co7  1  0.00000000  0.16669350  0.50000000  1
  Co  Co8  1  0.50000000  0.16665550  0.00000000  1
  Co  Co9  1  0.00000000  0.33334450  0.00000000  1
  Co  Co10  1  0.50000000  0.33330650  0.50000000  1
  Co  Co11  1  0.00000000  0.50000000  0.50000000  1
  O  O12  1  0.66894200  0.66930800  0.89952700  1
  O  O13  1  0.33105800  0.66930800  0.10047300  1
  O  O14  1  0.66693250  0.83338050  0.59845300  1
  O  O15  1  0.16693250  0.66661950  0.59845300  1
  O  O16  1  0.33306750  0.83338050  0.40154700  1
  O  O17  1  0.83306100  0.00000000  0.40147700  1
  O  O18  1  0.83306750  0.66661950  0.40154700  1
  O  O19  1  0.16894200  0.83069200  0.89952700  1
  O  O20  1  0.66090800  0.00000000  0.89947700  1
  O  O21  1  0.83105800  0.83069200  0.10047300  1
  O  O22  1  0.33909200  0.00000000  0.10052300  1
  O  O23  1  0.16693900  0.00000000  0.59852300  1
  O  O24  1  0.16894200  0.16930800  0.89952700  1
  O  O25  1  0.83105800  0.16930800  0.10047300  1
  O  O26  1  0.16693250  0.33338050  0.59845300  1
  O  O27  1  0.66693250  0.16661950  0.59845300  1
  O  O28  1  0.83306750  0.33338050  0.40154700  1
  O  O29  1  0.33306100  0.50000000  0.40147700  1
  O  O30  1  0.33306750  0.16661950  0.40154700  1
  O  O31  1  0.66894200  0.33069200  0.89952700  1
  O  O32  1  0.16090800  0.50000000  0.89947700  1
  O  O33  1  0.33105800  0.33069200  0.10047300  1
  O  O34  1  0.83909200  0.50000000  0.10052300  1
  O  O35  1  0.66693900  0.50000000  0.59852300  1
