# generated using pymatgen
data_Li3Cr2FeO6
_symmetry_space_group_name_H-M   'P 1'
_cell_length_a   12.96787400
_cell_length_b   2.97222800
_cell_length_c   5.94907499
_cell_angle_alpha   90.00000000
_cell_angle_beta   103.35014926
_cell_angle_gamma   90.00000000
_symmetry_Int_Tables_number   1
_chemical_formula_structural   Li3Cr2FeO6
_chemical_formula_sum   'Li6 Cr4 Fe2 O12'
_cell_volume   223.10175449
_cell_formula_units_Z   2
loop_
 _symmetry_equiv_pos_site_id
 _symmetry_equiv_pos_as_xyz
  1  'x, y, z'
loop_
 _atom_site_type_symbol
 _atom_site_label
 _atom_site_symmetry_multiplicity
 _atom_site_fract_x
 _atom_site_fract_y
 _atom_site_fract_z
 _atom_site_occupancy
  Li  Li0  1  0.00000000  0.00000000  0.00000000  1
  Li  Li1  1  0.16714700  0.50000000  0.33345700  1
  Li  Li2  1  0.33285300  0.00000000  0.66654300  1
  Li  Li3  1  0.50000000  0.50000000  0.00000000  1
  Li  Li4  1  0.66714700  0.00000000  0.33345700  1
  Li  Li5  1  0.83285300  0.50000000  0.66654300  1
  Cr  Cr6  1  0.16695000  0.50000000  0.83378100  1
  Cr  Cr7  1  0.33305000  0.00000000  0.16621900  1
  Cr  Cr8  1  0.66695000  0.00000000  0.83378100  1
  Cr  Cr9  1  0.83305000  0.50000000  0.16621900  1
  Fe  Fe10  1  0.00000000  0.00000000  0.50000000  1
  Fe  Fe11  1  0.50000000  0.50000000  0.50000000  1
  O  O12  1  0.16216900  0.00000000  0.59812800  1
  O  O13  1  0.32722700  0.50000000  0.93122300  1
  O  O14  1  0.33783100  0.50000000  0.40187200  1
  O  O15  1  0.49471100  0.00000000  0.26060100  1
  O  O16  1  0.00528900  0.50000000  0.73939900  1
  O  O17  1  0.17277300  0.00000000  0.06877700  1
  O  O18  1  0.66216900  0.50000000  0.59812800  1
  O  O19  1  0.82722700  0.00000000  0.93122300  1
  O  O20  1  0.83783100  0.00000000  0.40187200  1
  O  O21  1  0.99471100  0.50000000  0.26060100  1
  O  O22  1  0.50528900  0.00000000  0.73939900  1
  O  O23  1  0.67277300  0.50000000  0.06877700  1
