# generated using pymatgen
data_Li2Ti(FeO3)2
_symmetry_space_group_name_H-M   'P 1'
_cell_length_a   13.14363800
_cell_length_b   8.94529600
_cell_length_c   6.04472620
_cell_angle_alpha   90.00000000
_cell_angle_beta   103.72169154
_cell_angle_gamma   90.00000000
_symmetry_Int_Tables_number   1
_chemical_formula_structural   Li2Ti(FeO3)2
_chemical_formula_sum   'Li12 Ti6 Fe12 O36'
_cell_volume   690.41717700
_cell_formula_units_Z   6
loop_
 _symmetry_equiv_pos_site_id
 _symmetry_equiv_pos_as_xyz
  1  'x, y, z'
loop_
 _atom_site_type_symbol
 _atom_site_label
 _atom_site_symmetry_multiplicity
 _atom_site_fract_x
 _atom_site_fract_y
 _atom_site_fract_z
 _atom_site_occupancy
  Li  Li0  1  0.33214800  0.83199600  0.17035700  1
  Li  Li1  1  0.33214800  0.16800400  0.17035700  1
  Li  Li2  1  0.66785200  0.16800400  0.82964300  1
  Li  Li3  1  0.66785200  0.83199600  0.82964300  1
  Li  Li4  1  0.50000000  0.32942000  0.50000000  1
  Li  Li5  1  0.50000000  0.67058000  0.50000000  1
  Li  Li6  1  0.83214800  0.33199600  0.17035700  1
  Li  Li7  1  0.83214800  0.66800400  0.17035700  1
  Li  Li8  1  0.16785200  0.66800400  0.82964300  1
  Li  Li9  1  0.16785200  0.33199600  0.82964300  1
  Li  Li10  1  0.00000000  0.82942000  0.50000000  1
  Li  Li11  1  0.00000000  0.17058000  0.50000000  1
  Ti  Ti12  1  0.50000000  0.33303100  0.00000000  1
  Ti  Ti13  1  0.50000000  0.00000000  0.00000000  1
  Ti  Ti14  1  0.50000000  0.66696900  0.00000000  1
  Ti  Ti15  1  0.00000000  0.83303100  0.00000000  1
  Ti  Ti16  1  0.00000000  0.50000000  0.00000000  1
  Ti  Ti17  1  0.00000000  0.16696900  0.00000000  1
  Fe  Fe18  1  0.32844150  0.83637950  0.66347400  1
  Fe  Fe19  1  0.83353900  0.00000000  0.66299200  1
  Fe  Fe20  1  0.32844150  0.16362050  0.66347400  1
  Fe  Fe21  1  0.67155850  0.16362050  0.33652600  1
  Fe  Fe22  1  0.67155850  0.83637950  0.33652600  1
  Fe  Fe23  1  0.16646100  0.00000000  0.33700800  1
  Fe  Fe24  1  0.82844150  0.33637950  0.66347400  1
  Fe  Fe25  1  0.33353900  0.50000000  0.66299200  1
  Fe  Fe26  1  0.82844150  0.66362050  0.66347400  1
  Fe  Fe27  1  0.17155850  0.66362050  0.33652600  1
  Fe  Fe28  1  0.17155850  0.33637950  0.33652600  1
  Fe  Fe29  1  0.66646100  0.50000000  0.33700800  1
  O  O30  1  0.99215200  0.00000000  0.77279900  1
  O  O31  1  0.33132500  0.67328100  0.43712500  1
  O  O32  1  0.33132500  0.32671900  0.43712500  1
  O  O33  1  0.00784800  0.00000000  0.22720100  1
  O  O34  1  0.34407200  0.67330700  0.90132600  1
  O  O35  1  0.34407200  0.32669300  0.90132600  1
  O  O36  1  0.66867500  0.32671900  0.56287500  1
  O  O37  1  0.67815200  0.00000000  0.57346700  1
  O  O38  1  0.66867500  0.67328100  0.56287500  1
  O  O39  1  0.65592800  0.32669300  0.09867400  1
  O  O40  1  0.65208800  0.00000000  0.09333700  1
  O  O41  1  0.65592800  0.67330700  0.09867400  1
  O  O42  1  0.49956150  0.17023750  0.78175000  1
  O  O43  1  0.49956150  0.82976250  0.78175000  1
  O  O44  1  0.32184800  0.00000000  0.42653300  1
  O  O45  1  0.50043850  0.17023750  0.21825000  1
  O  O46  1  0.50043850  0.82976250  0.21825000  1
  O  O47  1  0.34791200  0.00000000  0.90666300  1
  O  O48  1  0.49215200  0.50000000  0.77279900  1
  O  O49  1  0.83132500  0.17328100  0.43712500  1
  O  O50  1  0.83132500  0.82671900  0.43712500  1
  O  O51  1  0.50784800  0.50000000  0.22720100  1
  O  O52  1  0.84407200  0.17330700  0.90132600  1
  O  O53  1  0.84407200  0.82669300  0.90132600  1
  O  O54  1  0.16867500  0.82671900  0.56287500  1
  O  O55  1  0.17815200  0.50000000  0.57346700  1
  O  O56  1  0.16867500  0.17328100  0.56287500  1
  O  O57  1  0.15592800  0.82669300  0.09867400  1
  O  O58  1  0.15208800  0.50000000  0.09333700  1
  O  O59  1  0.15592800  0.17330700  0.09867400  1
  O  O60  1  0.99956150  0.67023750  0.78175000  1
  O  O61  1  0.99956150  0.32976250  0.78175000  1
  O  O62  1  0.82184800  0.50000000  0.42653300  1
  O  O63  1  0.00043850  0.67023750  0.21825000  1
  O  O64  1  0.00043850  0.32976250  0.21825000  1
  O  O65  1  0.84791200  0.50000000  0.90666300  1
