# generated using pymatgen
data_Co3SbO8
_symmetry_space_group_name_H-M   'P 1'
_cell_length_a   5.70024800
_cell_length_b   9.80214400
_cell_length_c   9.09986758
_cell_angle_alpha   90.00000000
_cell_angle_beta   90.39255413
_cell_angle_gamma   90.00000000
_symmetry_Int_Tables_number   1
_chemical_formula_structural   Co3SbO8
_chemical_formula_sum   'Co12 Sb4 O32'
_cell_volume   508.43999813
_cell_formula_units_Z   4
loop_
 _symmetry_equiv_pos_site_id
 _symmetry_equiv_pos_as_xyz
  1  'x, y, z'
loop_
 _atom_site_type_symbol
 _atom_site_label
 _atom_site_symmetry_multiplicity
 _atom_site_fract_x
 _atom_site_fract_y
 _atom_site_fract_z
 _atom_site_occupancy
  Co  Co0  1  0.25464550  0.91577850  0.78540200  1
  Co  Co1  1  0.74922250  0.91672450  0.78938300  1
  Co  Co2  1  0.50039600  0.66942300  0.78421200  1
  Co  Co3  1  0.50039600  0.33057700  0.28421200  1
  Co  Co4  1  0.25464550  0.08422150  0.28540200  1
  Co  Co5  1  0.74922250  0.08327550  0.28938300  1
  Co  Co6  1  0.75464550  0.41577850  0.78540200  1
  Co  Co7  1  0.24922250  0.41672450  0.78938300  1
  Co  Co8  1  0.00039600  0.16942300  0.78421200  1
  Co  Co9  1  0.00039600  0.83057700  0.28421200  1
  Co  Co10  1  0.75464550  0.58422150  0.28540200  1
  Co  Co11  1  0.24922250  0.58327550  0.28938300  1
  Sb  Sb12  1  0.49590050  0.83424850  0.50792500  1
  Sb  Sb13  1  0.49590050  0.16575150  0.00792500  1
  Sb  Sb14  1  0.99590050  0.33424850  0.50792500  1
  Sb  Sb15  1  0.99590050  0.66575150  0.00792500  1
  O  O16  1  0.23595550  0.92060850  0.40123300  1
  O  O17  1  0.50313250  0.98417450  0.66759700  1
  O  O18  1  0.50082850  0.83102550  0.88867100  1
  O  O19  1  0.49996500  0.50372300  0.68997200  1
  O  O20  1  0.49996500  0.49627700  0.18997200  1
  O  O21  1  0.76026300  0.92112100  0.39838900  1
  O  O22  1  0.27476550  0.75666250  0.66512000  1
  O  O23  1  0.72715150  0.75883450  0.66685400  1
  O  O24  1  0.49767850  0.34115150  0.89737900  1
  O  O25  1  0.49767850  0.65884850  0.39737900  1
  O  O26  1  0.27476550  0.24333750  0.16512000  1
  O  O27  1  0.72715150  0.24116550  0.16685400  1
  O  O28  1  0.50082850  0.16897450  0.38867100  1
  O  O29  1  0.23595550  0.07939150  0.90123300  1
  O  O30  1  0.50313250  0.01582550  0.16759700  1
  O  O31  1  0.76026300  0.07887900  0.89838900  1
  O  O32  1  0.73595550  0.42060850  0.40123300  1
  O  O33  1  0.00313250  0.48417450  0.66759700  1
  O  O34  1  0.00082850  0.33102550  0.88867100  1
  O  O35  1  0.99996500  0.00372300  0.68997200  1
  O  O36  1  0.99996500  0.99627700  0.18997200  1
  O  O37  1  0.26026300  0.42112100  0.39838900  1
  O  O38  1  0.77476550  0.25666250  0.66512000  1
  O  O39  1  0.22715150  0.25883450  0.66685400  1
  O  O40  1  0.99767850  0.84115150  0.89737900  1
  O  O41  1  0.99767850  0.15884850  0.39737900  1
  O  O42  1  0.77476550  0.74333750  0.16512000  1
  O  O43  1  0.22715150  0.74116550  0.16685400  1
  O  O44  1  0.00082850  0.66897450  0.38867100  1
  O  O45  1  0.73595550  0.57939150  0.90123300  1
  O  O46  1  0.00313250  0.51582550  0.16759700  1
  O  O47  1  0.26026300  0.57887900  0.89838900  1
