# generated using pymatgen
data_Li2MnCo3O8
_symmetry_space_group_name_H-M   'P 1'
_cell_length_a   5.67554907
_cell_length_b   5.67554907
_cell_length_c   9.16251515
_cell_angle_alpha   90.00000000
_cell_angle_beta   90.00000000
_cell_angle_gamma   120.00000000
_symmetry_Int_Tables_number   1
_chemical_formula_structural   Li2MnCo3O8
_chemical_formula_sum   'Li4 Mn2 Co6 O16'
_cell_volume   255.60014965
_cell_formula_units_Z   2
loop_
 _symmetry_equiv_pos_site_id
 _symmetry_equiv_pos_as_xyz
  1  'x, y, z'
loop_
 _atom_site_type_symbol
 _atom_site_label
 _atom_site_symmetry_multiplicity
 _atom_site_fract_x
 _atom_site_fract_y
 _atom_site_fract_z
 _atom_site_occupancy
  Li  Li0  1  0.33333333  0.66666667  0.89631400  1
  Li  Li1  1  0.00000000  0.00000000  0.99834200  1
  Li  Li2  1  0.00000000  0.00000000  0.49834200  1
  Li  Li3  1  0.66666667  0.33333333  0.39631400  1
  Mn  Mn4  1  0.33333333  0.66666667  0.48496900  1
  Mn  Mn5  1  0.66666667  0.33333333  0.98496900  1
  Co  Co6  1  0.16742450  0.83257550  0.21065900  1
  Co  Co7  1  0.16742450  0.33484900  0.21065900  1
  Co  Co8  1  0.66515100  0.83257550  0.21065900  1
  Co  Co9  1  0.33484900  0.16742450  0.71065900  1
  Co  Co10  1  0.83257550  0.66515100  0.71065900  1
  Co  Co11  1  0.83257550  0.16742450  0.71065900  1
  O  O12  1  0.16297300  0.83702700  0.60385300  1
  O  O13  1  0.03973900  0.51986950  0.33738600  1
  O  O14  1  0.33333333  0.66666667  0.10791100  1
  O  O15  1  0.00000000  0.00000000  0.30814900  1
  O  O16  1  0.00000000  0.00000000  0.80814900  1
  O  O17  1  0.16297300  0.32594600  0.60385300  1
  O  O18  1  0.48013050  0.96026100  0.33738600  1
  O  O19  1  0.48013050  0.51986950  0.33738600  1
  O  O20  1  0.32594600  0.16297300  0.10385300  1
  O  O21  1  0.67405400  0.83702700  0.60385300  1
  O  O22  1  0.51986950  0.48013050  0.83738600  1
  O  O23  1  0.51986950  0.03973900  0.83738600  1
  O  O24  1  0.66666667  0.33333333  0.60791100  1
  O  O25  1  0.83702700  0.67405400  0.10385300  1
  O  O26  1  0.96026100  0.48013050  0.83738600  1
  O  O27  1  0.83702700  0.16297300  0.10385300  1
