# generated using pymatgen
data_Li4Mn3Co(PO4)4
_symmetry_space_group_name_H-M   'P 1'
_cell_length_a   4.77475900
_cell_length_b   6.11880000
_cell_length_c   10.52859778
_cell_angle_alpha   90.00000000
_cell_angle_beta   90.19942498
_cell_angle_gamma   90.00000000
_symmetry_Int_Tables_number   1
_chemical_formula_structural   Li4Mn3Co(PO4)4
_chemical_formula_sum   'Li4 Mn3 Co1 P4 O16'
_cell_volume   307.59949488
_cell_formula_units_Z   1
loop_
 _symmetry_equiv_pos_site_id
 _symmetry_equiv_pos_as_xyz
  1  'x, y, z'
loop_
 _atom_site_type_symbol
 _atom_site_label
 _atom_site_symmetry_multiplicity
 _atom_site_fract_x
 _atom_site_fract_y
 _atom_site_fract_z
 _atom_site_occupancy
  Li  Li0  1  0.99928500  0.74954500  0.99915000  1
  Li  Li1  1  0.99928500  0.25045500  0.99915000  1
  Li  Li2  1  0.49980200  0.25103900  0.50069600  1
  Li  Li3  1  0.49980200  0.74896100  0.50069600  1
  Mn  Mn4  1  0.52136900  0.50000000  0.21938300  1
  Mn  Mn5  1  0.47767600  0.00000000  0.78028100  1
  Mn  Mn6  1  0.02279300  0.00000000  0.28223300  1
  Co  Co7  1  0.97499900  0.50000000  0.72135100  1
  P  P8  1  0.91932500  0.00000000  0.59398200  1
  P  P9  1  0.58548100  0.00000000  0.09273200  1
  P  P10  1  0.41195100  0.50000000  0.90410900  1
  P  P11  1  0.08464900  0.50000000  0.40928400  1
  O  O12  1  0.78945800  0.00000000  0.45804100  1
  O  O13  1  0.79071100  0.79618400  0.66446000  1
  O  O14  1  0.79071100  0.20381600  0.66446000  1
  O  O15  1  0.76254500  0.50000000  0.40408600  1
  O  O16  1  0.73430400  0.50000000  0.90087400  1
  O  O17  1  0.71838800  0.79819700  0.16266300  1
  O  O18  1  0.71838800  0.20180300  0.16266300  1
  O  O19  1  0.70858300  0.00000000  0.95629000  1
  O  O20  1  0.29184300  0.50000000  0.04144100  1
  O  O21  1  0.27596600  0.29945900  0.83400700  1
  O  O22  1  0.27596600  0.70054100  0.83400700  1
  O  O23  1  0.26347800  0.00000000  0.09548900  1
  O  O24  1  0.24082600  0.00000000  0.59516100  1
  O  O25  1  0.21788600  0.29883300  0.33855800  1
  O  O26  1  0.21788600  0.70116700  0.33855800  1
  O  O27  1  0.20664500  0.50000000  0.54619300  1
