# generated using pymatgen
data_Li4Mn3(CoO4)3
_symmetry_space_group_name_H-M   'P 1'
_cell_length_a   5.70726440
_cell_length_b   5.87553143
_cell_length_c   6.90874397
_cell_angle_alpha   103.27600758
_cell_angle_beta   102.18759626
_cell_angle_gamma   90.87480938
_symmetry_Int_Tables_number   1
_chemical_formula_structural   Li4Mn3(CoO4)3
_chemical_formula_sum   'Li4 Mn3 Co3 O12'
_cell_volume   219.90360592
_cell_formula_units_Z   1
loop_
 _symmetry_equiv_pos_site_id
 _symmetry_equiv_pos_as_xyz
  1  'x, y, z'
loop_
 _atom_site_type_symbol
 _atom_site_label
 _atom_site_symmetry_multiplicity
 _atom_site_fract_x
 _atom_site_fract_y
 _atom_site_fract_z
 _atom_site_occupancy
  Li  Li0  1  0.31341200  0.85747250  0.86003300  1
  Li  Li1  1  0.00000000  0.50000000  0.50000000  1
  Li  Li2  1  0.50000000  0.50000000  0.50000000  1
  Li  Li3  1  0.68658800  0.14252750  0.13996700  1
  Mn  Mn4  1  0.82940800  0.33461950  0.83424900  1
  Mn  Mn5  1  0.17059200  0.66538050  0.16575100  1
  Mn  Mn6  1  0.50000000  0.00000000  0.50000000  1
  Co  Co7  1  0.33370500  0.33322750  0.83885900  1
  Co  Co8  1  0.66629500  0.66677250  0.16114100  1
  Co  Co9  1  0.00000000  0.00000000  0.50000000  1
  O  O10  1  0.09353700  0.56624750  0.86157400  1
  O  O11  1  0.57930100  0.55158250  0.83736800  1
  O  O12  1  0.90646300  0.43375250  0.13842600  1
  O  O13  1  0.25176900  0.73847950  0.46186600  1
  O  O14  1  0.42069900  0.44841750  0.16263200  1
  O  O15  1  0.75070300  0.77973450  0.48785400  1
  O  O16  1  0.92446700  0.89140150  0.19559900  1
  O  O17  1  0.24929700  0.22026550  0.51214600  1
  O  O18  1  0.42188200  0.88706550  0.16342100  1
  O  O19  1  0.74823100  0.26152050  0.53813400  1
  O  O20  1  0.07553300  0.10859850  0.80440100  1
  O  O21  1  0.57811800  0.11293450  0.83657900  1
