# generated using pymatgen
data_Fe3(OF2)2
_symmetry_space_group_name_H-M   'P 1'
_cell_length_a   6.62996400
_cell_length_b   7.03834800
_cell_length_c   9.27975987
_cell_angle_alpha   90.00000000
_cell_angle_beta   90.53719440
_cell_angle_gamma   90.00000000
_symmetry_Int_Tables_number   1
_chemical_formula_structural   Fe3(OF2)2
_chemical_formula_sum   'Fe12 O8 F16'
_cell_volume   433.01162475
_cell_formula_units_Z   4
loop_
 _symmetry_equiv_pos_site_id
 _symmetry_equiv_pos_as_xyz
  1  'x, y, z'
loop_
 _atom_site_type_symbol
 _atom_site_label
 _atom_site_symmetry_multiplicity
 _atom_site_fract_x
 _atom_site_fract_y
 _atom_site_fract_z
 _atom_site_occupancy
  Fe  Fe0  1  0.00000000  0.00000000  0.00000000  1
  Fe  Fe1  1  0.97400300  0.00000000  0.33539800  1
  Fe  Fe2  1  0.02599700  0.00000000  0.66460200  1
  Fe  Fe3  1  0.51282000  0.00000000  0.15728400  1
  Fe  Fe4  1  0.48718000  0.00000000  0.84271600  1
  Fe  Fe5  1  0.50000000  0.00000000  0.50000000  1
  Fe  Fe6  1  0.50000000  0.50000000  0.00000000  1
  Fe  Fe7  1  0.47400300  0.50000000  0.33539800  1
  Fe  Fe8  1  0.52599700  0.50000000  0.66460200  1
  Fe  Fe9  1  0.01282000  0.50000000  0.15728400  1
  Fe  Fe10  1  0.98718000  0.50000000  0.84271600  1
  Fe  Fe11  1  0.00000000  0.50000000  0.50000000  1
  O  O12  1  0.29758600  0.00000000  0.00388400  1
  O  O13  1  0.33103800  0.00000000  0.66799400  1
  O  O14  1  0.70241400  0.00000000  0.99611600  1
  O  O15  1  0.66896200  0.00000000  0.33200600  1
  O  O16  1  0.79758600  0.50000000  0.00388400  1
  O  O17  1  0.83103800  0.50000000  0.66799400  1
  O  O18  1  0.20241400  0.50000000  0.99611600  1
  O  O19  1  0.16896200  0.50000000  0.33200600  1
  F  F20  1  0.49610800  0.30164700  0.16025000  1
  F  F21  1  0.50000000  0.29224100  0.50000000  1
  F  F22  1  0.50389200  0.30164700  0.83975000  1
  F  F23  1  0.28969100  0.00000000  0.33360400  1
  F  F24  1  0.71030900  0.00000000  0.66639600  1
  F  F25  1  0.49610800  0.69835300  0.16025000  1
  F  F26  1  0.50389200  0.69835300  0.83975000  1
  F  F27  1  0.50000000  0.70775900  0.50000000  1
  F  F28  1  0.99610800  0.80164700  0.16025000  1
  F  F29  1  0.00000000  0.79224100  0.50000000  1
  F  F30  1  0.00389200  0.80164700  0.83975000  1
  F  F31  1  0.78969100  0.50000000  0.33360400  1
  F  F32  1  0.21030900  0.50000000  0.66639600  1
  F  F33  1  0.99610800  0.19835300  0.16025000  1
  F  F34  1  0.00389200  0.19835300  0.83975000  1
  F  F35  1  0.00000000  0.20775900  0.50000000  1
