# generated using pymatgen
data_Li4Cr2Fe3Sn3O16
_symmetry_space_group_name_H-M   'P 1'
_cell_length_a   10.60611800
_cell_length_b   6.11701600
_cell_length_c   9.66941757
_cell_angle_alpha   90.00000000
_cell_angle_beta   90.26002208
_cell_angle_gamma   90.00000000
_symmetry_Int_Tables_number   1
_chemical_formula_structural   Li4Cr2Fe3Sn3O16
_chemical_formula_sum   'Li8 Cr4 Fe6 Sn6 O32'
_cell_volume   627.32401653
_cell_formula_units_Z   2
loop_
 _symmetry_equiv_pos_site_id
 _symmetry_equiv_pos_as_xyz
  1  'x, y, z'
loop_
 _atom_site_type_symbol
 _atom_site_label
 _atom_site_symmetry_multiplicity
 _atom_site_fract_x
 _atom_site_fract_y
 _atom_site_fract_z
 _atom_site_occupancy
  Li  Li0  1  0.66938700  0.00000000  0.11185500  1
  Li  Li1  1  0.98864600  0.00000000  0.00868400  1
  Li  Li2  1  0.99103400  0.00000000  0.49980300  1
  Li  Li3  1  0.83428100  0.50000000  0.60455000  1
  Li  Li4  1  0.16938700  0.50000000  0.11185500  1
  Li  Li5  1  0.48864600  0.50000000  0.00868400  1
  Li  Li6  1  0.49103400  0.50000000  0.49980300  1
  Li  Li7  1  0.33428100  0.00000000  0.60455000  1
  Cr  Cr8  1  0.66910600  0.00000000  0.51029100  1
  Cr  Cr9  1  0.83827200  0.50000000  0.01754000  1
  Cr  Cr10  1  0.16910600  0.50000000  0.51029100  1
  Cr  Cr11  1  0.33827200  0.00000000  0.01754000  1
  Fe  Fe12  1  0.83124000  0.00000000  0.78473100  1
  Fe  Fe13  1  0.91507300  0.25546700  0.28557400  1
  Fe  Fe14  1  0.91507300  0.74453300  0.28557400  1
  Fe  Fe15  1  0.33124000  0.50000000  0.78473100  1
  Fe  Fe16  1  0.41507300  0.75546700  0.28557400  1
  Fe  Fe17  1  0.41507300  0.24453300  0.28557400  1
  Sn  Sn18  1  0.58538500  0.75375400  0.78706900  1
  Sn  Sn19  1  0.58538500  0.24624600  0.78706900  1
  Sn  Sn20  1  0.67093100  0.50000000  0.28747300  1
  Sn  Sn21  1  0.08538500  0.25375400  0.78706900  1
  Sn  Sn22  1  0.08538500  0.74624600  0.78706900  1
  Sn  Sn23  1  0.17093100  0.00000000  0.28747300  1
  O  O24  1  0.58206850  0.74813650  0.40314900  1
  O  O25  1  0.51982500  0.00000000  0.65243700  1
  O  O26  1  0.67187200  0.00000000  0.90231100  1
  O  O27  1  0.99674900  0.00000000  0.68492400  1
  O  O28  1  0.99493900  0.00000000  0.19403400  1
  O  O29  1  0.58206850  0.25186350  0.40314900  1
  O  O30  1  0.74128700  0.78262800  0.65432400  1
  O  O31  1  0.74128700  0.21737200  0.65432400  1
  O  O32  1  0.66328200  0.50000000  0.90599200  1
  O  O33  1  0.83223800  0.00000000  0.39740300  1
  O  O34  1  0.76337500  0.27930000  0.15566400  1
  O  O35  1  0.76337500  0.72070000  0.15566400  1
  O  O36  1  0.84056900  0.50000000  0.39805200  1
  O  O37  1  0.91729750  0.24589650  0.90066500  1
  O  O38  1  0.97985000  0.50000000  0.15918900  1
  O  O39  1  0.91729750  0.75410350  0.90066500  1
  O  O40  1  0.08206850  0.24813650  0.40314900  1
  O  O41  1  0.01982500  0.50000000  0.65243700  1
  O  O42  1  0.17187200  0.50000000  0.90231100  1
  O  O43  1  0.49674900  0.50000000  0.68492400  1
  O  O44  1  0.49493900  0.50000000  0.19403400  1
  O  O45  1  0.08206850  0.75186350  0.40314900  1
  O  O46  1  0.24128700  0.28262800  0.65432400  1
  O  O47  1  0.24128700  0.71737200  0.65432400  1
  O  O48  1  0.16328200  0.00000000  0.90599200  1
  O  O49  1  0.33223800  0.50000000  0.39740300  1
  O  O50  1  0.26337500  0.77930000  0.15566400  1
  O  O51  1  0.26337500  0.22070000  0.15566400  1
  O  O52  1  0.34056900  0.00000000  0.39805200  1
  O  O53  1  0.41729750  0.74589650  0.90066500  1
  O  O54  1  0.47985000  0.00000000  0.15918900  1
  O  O55  1  0.41729750  0.25410350  0.90066500  1
