# generated using pymatgen
data_Li3Co2(CO3)4
_symmetry_space_group_name_H-M   'P 1'
_cell_length_a   5.43567495
_cell_length_b   6.38113950
_cell_length_c   8.39384041
_cell_angle_alpha   84.47497355
_cell_angle_beta   107.02281764
_cell_angle_gamma   114.76247083
_symmetry_Int_Tables_number   1
_chemical_formula_structural   Li3Co2(CO3)4
_chemical_formula_sum   'Li3 Co2 C4 O12'
_cell_volume   252.67752425
_cell_formula_units_Z   1
loop_
 _symmetry_equiv_pos_site_id
 _symmetry_equiv_pos_as_xyz
  1  'x, y, z'
loop_
 _atom_site_type_symbol
 _atom_site_label
 _atom_site_symmetry_multiplicity
 _atom_site_fract_x
 _atom_site_fract_y
 _atom_site_fract_z
 _atom_site_occupancy
  Li  Li0  1  0.52654100  0.04872800  0.31003500  1
  Li  Li1  1  0.16153100  0.94921700  0.67794700  1
  Li  Li2  1  0.25136600  0.47478500  0.84872100  1
  Co  Co3  1  0.66021800  0.49363200  0.49366100  1
  Co  Co4  1  0.87042200  0.00532800  0.00255300  1
  C  C5  1  0.32996000  0.39180500  0.21134800  1
  C  C6  1  0.91930800  0.87724700  0.29790800  1
  C  C7  1  0.73693500  0.11822900  0.69715300  1
  C  C8  1  0.72943100  0.60516600  0.78933200  1
  O  O9  1  0.15839900  0.34401200  0.06423300  1
  O  O10  1  0.57381300  0.37990200  0.24891300  1
  O  O11  1  0.12269700  0.91760800  0.23668200  1
  O  O12  1  0.70612700  0.91751700  0.20769100  1
  O  O13  1  0.92468900  0.80075600  0.45015900  1
  O  O14  1  0.27486300  0.45200800  0.33554200  1
  O  O15  1  0.66245400  0.18312700  0.54455100  1
  O  O16  1  0.95178800  0.61616800  0.75146500  1
  O  O17  1  0.56880200  0.05715600  0.79057900  1
  O  O18  1  0.49189600  0.52523300  0.67057900  1
  O  O19  1  0.98356700  0.11523500  0.75978800  1
  O  O20  1  0.72968000  0.66769000  0.92897600  1
