# generated using pymatgen
data_Fe5(OF4)2
_symmetry_space_group_name_H-M   'P 1'
_cell_length_a   4.82949286
_cell_length_b   7.99048115
_cell_length_c   10.13046064
_cell_angle_alpha   71.55324909
_cell_angle_beta   88.92056019
_cell_angle_gamma   89.22670777
_symmetry_Int_Tables_number   1
_chemical_formula_structural   Fe5(OF4)2
_chemical_formula_sum   'Fe10 O4 F16'
_cell_volume   370.76974971
_cell_formula_units_Z   2
loop_
 _symmetry_equiv_pos_site_id
 _symmetry_equiv_pos_as_xyz
  1  'x, y, z'
loop_
 _atom_site_type_symbol
 _atom_site_label
 _atom_site_symmetry_multiplicity
 _atom_site_fract_x
 _atom_site_fract_y
 _atom_site_fract_z
 _atom_site_occupancy
  Fe  Fe0  1  0.50089700  0.69951200  0.89953800  1
  Fe  Fe1  1  0.48352500  0.89073900  0.29379800  1
  Fe  Fe2  1  0.50317200  0.09798600  0.70463700  1
  Fe  Fe3  1  0.49891600  0.31670900  0.09690700  1
  Fe  Fe4  1  0.48014600  0.49209700  0.51149900  1
  Fe  Fe5  1  0.02886700  0.39021300  0.79185200  1
  Fe  Fe6  1  0.96275600  0.80512200  0.61286400  1
  Fe  Fe7  1  0.00035800  0.20075700  0.39472300  1
  Fe  Fe8  1  0.04754300  0.61366000  0.18505200  1
  Fe  Fe9  1  0.00471000  0.99666700  0.01454600  1
  O  O10  1  0.17650500  0.82638500  0.19021500  1
  O  O11  1  0.31598300  0.34111400  0.66632800  1
  O  O12  1  0.30600600  0.55462900  0.05971200  1
  O  O13  1  0.69031700  0.84980100  0.72962400  1
  F  F14  1  0.20018900  0.24031600  0.98108000  1
  F  F15  1  0.18444400  0.02402300  0.57992600  1
  F  F16  1  0.20761200  0.45024300  0.37189200  1
  F  F17  1  0.19712700  0.65148500  0.76821700  1
  F  F18  1  0.29324600  0.92685300  0.88370000  1
  F  F19  1  0.31136400  0.14237900  0.28465500  1
  F  F20  1  0.29107800  0.72736600  0.49292900  1
  F  F21  1  0.70542200  0.27119900  0.51076600  1
  F  F22  1  0.68693600  0.63907400  0.33556500  1
  F  F23  1  0.69226600  0.07188200  0.12611300  1
  F  F24  1  0.71116800  0.47379700  0.90406800  1
  F  F25  1  0.80038100  0.57208100  0.61004700  1
  F  F26  1  0.80293600  0.94641200  0.42894800  1
  F  F27  1  0.80406700  0.15567200  0.82978700  1
  F  F28  1  0.78670000  0.75231900  0.02658300  1
  F  F29  1  0.82536200  0.37950800  0.21442500  1
