# generated using pymatgen
data_Na6Ni2C4SO16
_symmetry_space_group_name_H-M   'P 1'
_cell_length_a   13.89780600
_cell_length_b   13.89780600
_cell_length_c   13.89780600
_cell_angle_alpha   90.00000000
_cell_angle_beta   90.00000000
_cell_angle_gamma   90.00000000
_symmetry_Int_Tables_number   1
_chemical_formula_structural   Na6Ni2C4SO16
_chemical_formula_sum   'Na48 Ni16 C32 S8 O128'
_cell_volume   2684.34749250
_cell_formula_units_Z   8
loop_
 _symmetry_equiv_pos_site_id
 _symmetry_equiv_pos_as_xyz
  1  'x, y, z'
loop_
 _atom_site_type_symbol
 _atom_site_label
 _atom_site_symmetry_multiplicity
 _atom_site_fract_x
 _atom_site_fract_y
 _atom_site_fract_z
 _atom_site_occupancy
  Na  Na0  1  0.25000000  0.75000000  0.53335600  1
  Na  Na1  1  0.75000000  0.03335600  0.75000000  1
  Na  Na2  1  0.46664400  0.75000000  0.75000000  1
  Na  Na3  1  0.00000000  0.78335600  0.00000000  1
  Na  Na4  1  0.21664400  0.00000000  0.00000000  1
  Na  Na5  1  0.00000000  0.00000000  0.78335600  1
  Na  Na6  1  0.25000000  0.75000000  0.96664400  1
  Na  Na7  1  0.03335600  0.75000000  0.75000000  1
  Na  Na8  1  0.25000000  0.96664400  0.75000000  1
  Na  Na9  1  0.78335600  0.00000000  0.00000000  1
  Na  Na10  1  0.00000000  0.21664400  0.00000000  1
  Na  Na11  1  0.00000000  0.00000000  0.21664400  1
  Na  Na12  1  0.25000000  0.25000000  0.03335600  1
  Na  Na13  1  0.75000000  0.53335600  0.25000000  1
  Na  Na14  1  0.46664400  0.25000000  0.25000000  1
  Na  Na15  1  0.00000000  0.28335600  0.50000000  1
  Na  Na16  1  0.21664400  0.50000000  0.50000000  1
  Na  Na17  1  0.00000000  0.50000000  0.28335600  1
  Na  Na18  1  0.25000000  0.25000000  0.46664400  1
  Na  Na19  1  0.03335600  0.25000000  0.25000000  1
  Na  Na20  1  0.25000000  0.46664400  0.25000000  1
  Na  Na21  1  0.78335600  0.50000000  0.50000000  1
  Na  Na22  1  0.00000000  0.71664400  0.50000000  1
  Na  Na23  1  0.00000000  0.50000000  0.71664400  1
  Na  Na24  1  0.75000000  0.75000000  0.03335600  1
  Na  Na25  1  0.25000000  0.03335600  0.25000000  1
  Na  Na26  1  0.96664400  0.75000000  0.25000000  1
  Na  Na27  1  0.50000000  0.78335600  0.50000000  1
  Na  Na28  1  0.71664400  0.00000000  0.50000000  1
  Na  Na29  1  0.50000000  0.00000000  0.28335600  1
  Na  Na30  1  0.75000000  0.75000000  0.46664400  1
  Na  Na31  1  0.53335600  0.75000000  0.25000000  1
  Na  Na32  1  0.75000000  0.96664400  0.25000000  1
  Na  Na33  1  0.28335600  0.00000000  0.50000000  1
  Na  Na34  1  0.50000000  0.21664400  0.50000000  1
  Na  Na35  1  0.50000000  0.00000000  0.71664400  1
  Na  Na36  1  0.75000000  0.25000000  0.53335600  1
  Na  Na37  1  0.25000000  0.53335600  0.75000000  1
  Na  Na38  1  0.96664400  0.25000000  0.75000000  1
  Na  Na39  1  0.50000000  0.28335600  0.00000000  1
  Na  Na40  1  0.71664400  0.50000000  0.00000000  1
  Na  Na41  1  0.50000000  0.50000000  0.78335600  1
  Na  Na42  1  0.75000000  0.25000000  0.96664400  1
  Na  Na43  1  0.53335600  0.25000000  0.75000000  1
  Na  Na44  1  0.75000000  0.46664400  0.75000000  1
  Na  Na45  1  0.28335600  0.50000000  0.00000000  1
  Na  Na46  1  0.50000000  0.71664400  0.00000000  1
  Na  Na47  1  0.50000000  0.50000000  0.21664400  1
  Ni  Ni48  1  0.12500000  0.87500000  0.37500000  1
  Ni  Ni49  1  0.87500000  0.12500000  0.37500000  1
  Ni  Ni50  1  0.87500000  0.87500000  0.62500000  1
  Ni  Ni51  1  0.12500000  0.12500000  0.62500000  1
  Ni  Ni52  1  0.12500000  0.37500000  0.87500000  1
  Ni  Ni53  1  0.87500000  0.62500000  0.87500000  1
  Ni  Ni54  1  0.87500000  0.37500000  0.12500000  1
  Ni  Ni55  1  0.12500000  0.62500000  0.12500000  1
  Ni  Ni56  1  0.62500000  0.87500000  0.87500000  1
  Ni  Ni57  1  0.37500000  0.12500000  0.87500000  1
  Ni  Ni58  1  0.37500000  0.87500000  0.12500000  1
  Ni  Ni59  1  0.62500000  0.12500000  0.12500000  1
  Ni  Ni60  1  0.62500000  0.37500000  0.37500000  1
  Ni  Ni61  1  0.37500000  0.62500000  0.37500000  1
  Ni  Ni62  1  0.37500000  0.37500000  0.62500000  1
  Ni  Ni63  1  0.62500000  0.62500000  0.62500000  1
  C  C64  1  0.90706367  0.09293633  0.59293633  1
  C  C65  1  0.15706367  0.84293633  0.15706367  1
  C  C66  1  0.59293633  0.09293633  0.90706367  1
  C  C67  1  0.40706367  0.90706367  0.90706367  1
  C  C68  1  0.84293633  0.84293633  0.84293633  1
  C  C69  1  0.15706367  0.15706367  0.84293633  1
  C  C70  1  0.09293633  0.90706367  0.59293633  1
  C  C71  1  0.84293633  0.15706367  0.15706367  1
  C  C72  1  0.90706367  0.59293633  0.09293633  1
  C  C73  1  0.15706367  0.34293633  0.65706367  1
  C  C74  1  0.59293633  0.59293633  0.40706367  1
  C  C75  1  0.40706367  0.40706367  0.40706367  1
  C  C76  1  0.84293633  0.34293633  0.34293633  1
  C  C77  1  0.15706367  0.65706367  0.34293633  1
  C  C78  1  0.09293633  0.40706367  0.09293633  1
  C  C79  1  0.84293633  0.65706367  0.65706367  1
  C  C80  1  0.40706367  0.09293633  0.09293633  1
  C  C81  1  0.65706367  0.84293633  0.65706367  1
  C  C82  1  0.09293633  0.09293633  0.40706367  1
  C  C83  1  0.90706367  0.90706367  0.40706367  1
  C  C84  1  0.34293633  0.84293633  0.34293633  1
  C  C85  1  0.65706367  0.15706367  0.34293633  1
  C  C86  1  0.59293633  0.90706367  0.09293633  1
  C  C87  1  0.34293633  0.15706367  0.65706367  1
  C  C88  1  0.40706367  0.59293633  0.59293633  1
  C  C89  1  0.65706367  0.34293633  0.15706367  1
  C  C90  1  0.09293633  0.59293633  0.90706367  1
  C  C91  1  0.90706367  0.40706367  0.90706367  1
  C  C92  1  0.34293633  0.34293633  0.84293633  1
  C  C93  1  0.65706367  0.65706367  0.84293633  1
  C  C94  1  0.59293633  0.40706367  0.59293633  1
  C  C95  1  0.34293633  0.65706367  0.15706367  1
  S  S96  1  0.00000000  0.00000000  0.00000000  1
  S  S97  1  0.25000000  0.75000000  0.75000000  1
  S  S98  1  0.00000000  0.50000000  0.50000000  1
  S  S99  1  0.25000000  0.25000000  0.25000000  1
  S  S100  1  0.50000000  0.00000000  0.50000000  1
  S  S101  1  0.75000000  0.75000000  0.25000000  1
  S  S102  1  0.50000000  0.50000000  0.00000000  1
  S  S103  1  0.75000000  0.25000000  0.75000000  1
  O  O104  1  0.93782300  0.06217700  0.93782300  1
  O  O105  1  0.27277250  0.85541600  0.40322250  1
  O  O106  1  0.06217700  0.06217700  0.06217700  1
  O  O107  1  0.93782300  0.93782300  0.06217700  1
  O  O108  1  0.72722750  0.14458400  0.40322250  1
  O  O109  1  0.06217700  0.93782300  0.93782300  1
  O  O110  1  0.64458400  0.90322250  0.72722750  1
  O  O111  1  0.89458400  0.15322250  0.52277250  1
  O  O112  1  0.59677750  0.77277250  0.64458400  1
  O  O113  1  0.84677750  0.02277250  0.60541600  1
  O  O114  1  0.09677750  0.22722750  0.85541600  1
  O  O115  1  0.34677750  0.97722750  0.89458400  1
  O  O116  1  0.97722750  0.10541600  0.65322250  1
  O  O117  1  0.22722750  0.85541600  0.09677750  1
  O  O118  1  0.85541600  0.90322250  0.77277250  1
  O  O119  1  0.60541600  0.15322250  0.97722750  1
  O  O120  1  0.14458400  0.09677750  0.77277250  1
  O  O121  1  0.39458400  0.84677750  0.97722750  1
  O  O122  1  0.02277250  0.89458400  0.65322250  1
  O  O123  1  0.77277250  0.14458400  0.09677750  1
  O  O124  1  0.90322250  0.77277250  0.85541600  1
  O  O125  1  0.65322250  0.02277250  0.89458400  1
  O  O126  1  0.40322250  0.22722750  0.64458400  1
  O  O127  1  0.15322250  0.97722750  0.60541600  1
  O  O128  1  0.35541600  0.09677750  0.72722750  1
  O  O129  1  0.10541600  0.84677750  0.52277250  1
  O  O130  1  0.18782300  0.81217700  0.81217700  1
  O  O131  1  0.52277250  0.10541600  0.84677750  1
  O  O132  1  0.31217700  0.81217700  0.68782300  1
  O  O133  1  0.68782300  0.18782300  0.68782300  1
  O  O134  1  0.47722750  0.89458400  0.84677750  1
  O  O135  1  0.81217700  0.18782300  0.81217700  1
  O  O136  1  0.93782300  0.56217700  0.43782300  1
  O  O137  1  0.27277250  0.35541600  0.90322250  1
  O  O138  1  0.06217700  0.56217700  0.56217700  1
  O  O139  1  0.93782300  0.43782300  0.56217700  1
  O  O140  1  0.72722750  0.64458400  0.90322250  1
  O  O141  1  0.06217700  0.43782300  0.43782300  1
  O  O142  1  0.64458400  0.40322250  0.22722750  1
  O  O143  1  0.89458400  0.65322250  0.02277250  1
  O  O144  1  0.59677750  0.27277250  0.14458400  1
  O  O145  1  0.84677750  0.52277250  0.10541600  1
  O  O146  1  0.09677750  0.72722750  0.35541600  1
  O  O147  1  0.34677750  0.47722750  0.39458400  1
  O  O148  1  0.97722750  0.60541600  0.15322250  1
  O  O149  1  0.22722750  0.35541600  0.59677750  1
  O  O150  1  0.85541600  0.40322250  0.27277250  1
  O  O151  1  0.60541600  0.65322250  0.47722750  1
  O  O152  1  0.14458400  0.59677750  0.27277250  1
  O  O153  1  0.39458400  0.34677750  0.47722750  1
  O  O154  1  0.02277250  0.39458400  0.15322250  1
  O  O155  1  0.77277250  0.64458400  0.59677750  1
  O  O156  1  0.90322250  0.27277250  0.35541600  1
  O  O157  1  0.65322250  0.52277250  0.39458400  1
  O  O158  1  0.40322250  0.72722750  0.14458400  1
  O  O159  1  0.15322250  0.47722750  0.10541600  1
  O  O160  1  0.35541600  0.59677750  0.22722750  1
  O  O161  1  0.10541600  0.34677750  0.02277250  1
  O  O162  1  0.18782300  0.31217700  0.31217700  1
  O  O163  1  0.52277250  0.60541600  0.34677750  1
  O  O164  1  0.31217700  0.31217700  0.18782300  1
  O  O165  1  0.68782300  0.68782300  0.18782300  1
  O  O166  1  0.47722750  0.39458400  0.34677750  1
  O  O167  1  0.81217700  0.68782300  0.31217700  1
  O  O168  1  0.43782300  0.06217700  0.43782300  1
  O  O169  1  0.77277250  0.85541600  0.90322250  1
  O  O170  1  0.56217700  0.06217700  0.56217700  1
  O  O171  1  0.43782300  0.93782300  0.56217700  1
  O  O172  1  0.22722750  0.14458400  0.90322250  1
  O  O173  1  0.56217700  0.93782300  0.43782300  1
  O  O174  1  0.14458400  0.90322250  0.22722750  1
  O  O175  1  0.39458400  0.15322250  0.02277250  1
  O  O176  1  0.09677750  0.77277250  0.14458400  1
  O  O177  1  0.34677750  0.02277250  0.10541600  1
  O  O178  1  0.59677750  0.22722750  0.35541600  1
  O  O179  1  0.84677750  0.97722750  0.39458400  1
  O  O180  1  0.47722750  0.10541600  0.15322250  1
  O  O181  1  0.72722750  0.85541600  0.59677750  1
  O  O182  1  0.35541600  0.90322250  0.27277250  1
  O  O183  1  0.10541600  0.15322250  0.47722750  1
  O  O184  1  0.64458400  0.09677750  0.27277250  1
  O  O185  1  0.89458400  0.84677750  0.47722750  1
  O  O186  1  0.52277250  0.89458400  0.15322250  1
  O  O187  1  0.27277250  0.14458400  0.59677750  1
  O  O188  1  0.40322250  0.77277250  0.35541600  1
  O  O189  1  0.15322250  0.02277250  0.39458400  1
  O  O190  1  0.90322250  0.22722750  0.14458400  1
  O  O191  1  0.65322250  0.97722750  0.10541600  1
  O  O192  1  0.85541600  0.09677750  0.22722750  1
  O  O193  1  0.60541600  0.84677750  0.02277250  1
  O  O194  1  0.68782300  0.81217700  0.31217700  1
  O  O195  1  0.02277250  0.10541600  0.34677750  1
  O  O196  1  0.81217700  0.81217700  0.18782300  1
  O  O197  1  0.18782300  0.18782300  0.18782300  1
  O  O198  1  0.97722750  0.89458400  0.34677750  1
  O  O199  1  0.31217700  0.18782300  0.31217700  1
  O  O200  1  0.43782300  0.56217700  0.93782300  1
  O  O201  1  0.77277250  0.35541600  0.40322250  1
  O  O202  1  0.56217700  0.56217700  0.06217700  1
  O  O203  1  0.43782300  0.43782300  0.06217700  1
  O  O204  1  0.22722750  0.64458400  0.40322250  1
  O  O205  1  0.56217700  0.43782300  0.93782300  1
  O  O206  1  0.14458400  0.40322250  0.72722750  1
  O  O207  1  0.39458400  0.65322250  0.52277250  1
  O  O208  1  0.09677750  0.27277250  0.64458400  1
  O  O209  1  0.34677750  0.52277250  0.60541600  1
  O  O210  1  0.59677750  0.72722750  0.85541600  1
  O  O211  1  0.84677750  0.47722750  0.89458400  1
  O  O212  1  0.47722750  0.60541600  0.65322250  1
  O  O213  1  0.72722750  0.35541600  0.09677750  1
  O  O214  1  0.35541600  0.40322250  0.77277250  1
  O  O215  1  0.10541600  0.65322250  0.97722750  1
  O  O216  1  0.64458400  0.59677750  0.77277250  1
  O  O217  1  0.89458400  0.34677750  0.97722750  1
  O  O218  1  0.52277250  0.39458400  0.65322250  1
  O  O219  1  0.27277250  0.64458400  0.09677750  1
  O  O220  1  0.40322250  0.27277250  0.85541600  1
  O  O221  1  0.15322250  0.52277250  0.89458400  1
  O  O222  1  0.90322250  0.72722750  0.64458400  1
  O  O223  1  0.65322250  0.47722750  0.60541600  1
  O  O224  1  0.85541600  0.59677750  0.72722750  1
  O  O225  1  0.60541600  0.34677750  0.52277250  1
  O  O226  1  0.68782300  0.31217700  0.81217700  1
  O  O227  1  0.02277250  0.60541600  0.84677750  1
  O  O228  1  0.81217700  0.31217700  0.68782300  1
  O  O229  1  0.18782300  0.68782300  0.68782300  1
  O  O230  1  0.97722750  0.39458400  0.84677750  1
  O  O231  1  0.31217700  0.68782300  0.81217700  1
