# generated using pymatgen
data_LiVF5
_symmetry_space_group_name_H-M   'P 1'
_cell_length_a   7.79585400
_cell_length_b   9.10691800
_cell_length_c   10.87727700
_cell_angle_alpha   90.00000000
_cell_angle_beta   90.00000000
_cell_angle_gamma   90.00000000
_symmetry_Int_Tables_number   1
_chemical_formula_structural   LiVF5
_chemical_formula_sum   'Li8 V8 F40'
_cell_volume   772.24536726
_cell_formula_units_Z   8
loop_
 _symmetry_equiv_pos_site_id
 _symmetry_equiv_pos_as_xyz
  1  'x, y, z'
loop_
 _atom_site_type_symbol
 _atom_site_label
 _atom_site_symmetry_multiplicity
 _atom_site_fract_x
 _atom_site_fract_y
 _atom_site_fract_z
 _atom_site_occupancy
  Li  Li0  1  0.50000000  0.34708800  0.00000000  1
  Li  Li1  1  0.50000000  0.15291200  0.50000000  1
  Li  Li2  1  0.50000000  0.84708800  0.50000000  1
  Li  Li3  1  0.50000000  0.65291200  0.00000000  1
  Li  Li4  1  0.00000000  0.84708800  0.00000000  1
  Li  Li5  1  0.00000000  0.65291200  0.50000000  1
  Li  Li6  1  0.00000000  0.34708800  0.50000000  1
  Li  Li7  1  0.00000000  0.15291200  0.00000000  1
  V  V8  1  0.15444300  0.00000000  0.39405900  1
  V  V9  1  0.34555700  0.00000000  0.89405900  1
  V  V10  1  0.65444300  0.00000000  0.10594100  1
  V  V11  1  0.84555700  0.00000000  0.60594100  1
  V  V12  1  0.65444300  0.50000000  0.39405900  1
  V  V13  1  0.84555700  0.50000000  0.89405900  1
  V  V14  1  0.15444300  0.50000000  0.10594100  1
  V  V15  1  0.34555700  0.50000000  0.60594100  1
  F  F16  1  0.50000000  0.36904400  0.50000000  1
  F  F17  1  0.99689100  0.00000000  0.73285000  1
  F  F18  1  0.25042900  0.17078500  0.35154600  1
  F  F19  1  0.24957100  0.17078500  0.85154600  1
  F  F20  1  0.17087400  0.00000000  0.02557300  1
  F  F21  1  0.50000000  0.13095600  0.00000000  1
  F  F22  1  0.32912600  0.00000000  0.52557300  1
  F  F23  1  0.25042900  0.82921500  0.35154600  1
  F  F24  1  0.24957100  0.82921500  0.85154600  1
  F  F25  1  0.50310900  0.00000000  0.23285000  1
  F  F26  1  0.49689100  0.00000000  0.76715000  1
  F  F27  1  0.75042900  0.17078500  0.14845400  1
  F  F28  1  0.74957100  0.17078500  0.64845400  1
  F  F29  1  0.67087400  0.00000000  0.47442700  1
  F  F30  1  0.50000000  0.86904400  0.00000000  1
  F  F31  1  0.82912600  0.00000000  0.97442700  1
  F  F32  1  0.75042900  0.82921500  0.14845400  1
  F  F33  1  0.74957100  0.82921500  0.64845400  1
  F  F34  1  0.00310900  0.00000000  0.26715000  1
  F  F35  1  0.50000000  0.63095600  0.50000000  1
  F  F36  1  0.00000000  0.86904400  0.50000000  1
  F  F37  1  0.49689100  0.50000000  0.73285000  1
  F  F38  1  0.75042900  0.67078500  0.35154600  1
  F  F39  1  0.74957100  0.67078500  0.85154600  1
  F  F40  1  0.67087400  0.50000000  0.02557300  1
  F  F41  1  0.00000000  0.63095600  0.00000000  1
  F  F42  1  0.82912600  0.50000000  0.52557300  1
  F  F43  1  0.75042900  0.32921500  0.35154600  1
  F  F44  1  0.74957100  0.32921500  0.85154600  1
  F  F45  1  0.00310900  0.50000000  0.23285000  1
  F  F46  1  0.99689100  0.50000000  0.76715000  1
  F  F47  1  0.25042900  0.67078500  0.14845400  1
  F  F48  1  0.24957100  0.67078500  0.64845400  1
  F  F49  1  0.17087400  0.50000000  0.47442700  1
  F  F50  1  0.00000000  0.36904400  0.00000000  1
  F  F51  1  0.32912600  0.50000000  0.97442700  1
  F  F52  1  0.25042900  0.32921500  0.14845400  1
  F  F53  1  0.24957100  0.32921500  0.64845400  1
  F  F54  1  0.50310900  0.50000000  0.26715000  1
  F  F55  1  0.00000000  0.13095600  0.50000000  1
