# generated using pymatgen
data_LiMnP2HO7
_symmetry_space_group_name_H-M   'P 1'
_cell_length_a   6.58612478
_cell_length_b   6.59504643
_cell_length_c   6.67121789
_cell_angle_alpha   89.64953134
_cell_angle_beta   110.52151198
_cell_angle_gamma   96.58280137
_symmetry_Int_Tables_number   1
_chemical_formula_structural   LiMnP2HO7
_chemical_formula_sum   'Li2 Mn2 P4 H2 O14'
_cell_volume   269.41108781
_cell_formula_units_Z   2
loop_
 _symmetry_equiv_pos_site_id
 _symmetry_equiv_pos_as_xyz
  1  'x, y, z'
loop_
 _atom_site_type_symbol
 _atom_site_label
 _atom_site_symmetry_multiplicity
 _atom_site_fract_x
 _atom_site_fract_y
 _atom_site_fract_z
 _atom_site_occupancy
  Li  Li0  1  0.23833500  0.11887100  0.15503600  1
  Li  Li1  1  0.76166500  0.88112900  0.84496400  1
  Mn  Mn2  1  0.10449500  0.34696200  0.72253000  1
  Mn  Mn3  1  0.89550500  0.65303800  0.27747000  1
  P  P4  1  0.77256900  0.15837500  0.22811700  1
  P  P5  1  0.64008200  0.38634100  0.81708000  1
  P  P6  1  0.35991800  0.61365900  0.18292000  1
  P  P7  1  0.22743100  0.84162500  0.77188300  1
  H  H8  1  0.65556100  0.16621200  0.49611800  1
  H  H9  1  0.34443900  0.83378800  0.50388200  1
  O  O10  1  0.60427100  0.09227400  0.34479500  1
  O  O11  1  0.13098100  0.02145500  0.83290100  1
  O  O12  1  0.61528300  0.24302100  0.01343100  1
  O  O13  1  0.76891800  0.26390000  0.71534900  1
  O  O14  1  0.94556200  0.32592500  0.36105500  1
  O  O15  1  0.40627400  0.39446400  0.67420800  1
  O  O16  1  0.23139200  0.41139900  0.07410000  1
  O  O17  1  0.76860800  0.58860100  0.92590000  1
  O  O18  1  0.59372600  0.60553600  0.32579200  1
  O  O19  1  0.05443800  0.67407500  0.63894500  1
  O  O20  1  0.23108200  0.73610000  0.28465100  1
  O  O21  1  0.38471700  0.75697900  0.98656900  1
  O  O22  1  0.86901900  0.97854500  0.16709900  1
  O  O23  1  0.39572900  0.90772600  0.65520500  1
