# generated using pymatgen
data_Li5Ti2V3O10
_symmetry_space_group_name_H-M   'P 1'
_cell_length_a   5.14696245
_cell_length_b   5.19145906
_cell_length_c   7.83357501
_cell_angle_alpha   71.37246961
_cell_angle_beta   72.05114240
_cell_angle_gamma   81.00776070
_symmetry_Int_Tables_number   1
_chemical_formula_structural   Li5Ti2V3O10
_chemical_formula_sum   'Li5 Ti2 V3 O10'
_cell_volume   188.30762042
_cell_formula_units_Z   1
loop_
 _symmetry_equiv_pos_site_id
 _symmetry_equiv_pos_as_xyz
  1  'x, y, z'
loop_
 _atom_site_type_symbol
 _atom_site_label
 _atom_site_symmetry_multiplicity
 _atom_site_fract_x
 _atom_site_fract_y
 _atom_site_fract_z
 _atom_site_occupancy
  Li  Li0  1  0.00000000  0.50000000  0.50000000  1
  Li  Li1  1  0.49250700  0.78162650  0.40891350  1
  Li  Li2  1  0.50749300  0.21837350  0.59108650  1
  Li  Li3  1  0.51895700  0.60292200  0.78250700  1
  Li  Li4  1  0.48104300  0.39707800  0.21749300  1
  Ti  Ti5  1  0.01516500  0.89409400  0.69589250  1
  Ti  Ti6  1  0.98483500  0.10590600  0.30410750  1
  V  V7  1  0.50000000  0.00000000  0.00000000  1
  V  V8  1  0.99122200  0.30447400  0.90655600  1
  V  V9  1  0.00877800  0.69552600  0.09344400  1
  O  O10  1  0.24575000  0.95840600  0.84851900  1
  O  O11  1  0.75425000  0.04159400  0.15148100  1
  O  O12  1  0.77800000  0.86285900  0.54333150  1
  O  O13  1  0.22200000  0.13714100  0.45666850  1
  O  O14  1  0.75146400  0.67014400  0.93464250  1
  O  O15  1  0.24853600  0.32985600  0.06535750  1
  O  O16  1  0.24310800  0.77949000  0.24579400  1
  O  O17  1  0.75689200  0.22051000  0.75420600  1
  O  O18  1  0.23156300  0.57368300  0.66206200  1
  O  O19  1  0.76843700  0.42631700  0.33793800  1
