# generated using pymatgen
data_V3Cr2Ni(PO4)6
_symmetry_space_group_name_H-M   'P 1'
_cell_length_a   8.60490962
_cell_length_b   8.60490962
_cell_length_c   20.54768795
_cell_angle_alpha   90.00000000
_cell_angle_beta   90.00000000
_cell_angle_gamma   120.00000000
_symmetry_Int_Tables_number   1
_chemical_formula_structural   V3Cr2Ni(PO4)6
_chemical_formula_sum   'V9 Cr6 Ni3 P18 O72'
_cell_volume   1317.60799060
_cell_formula_units_Z   3
loop_
 _symmetry_equiv_pos_site_id
 _symmetry_equiv_pos_as_xyz
  1  'x, y, z'
loop_
 _atom_site_type_symbol
 _atom_site_label
 _atom_site_symmetry_multiplicity
 _atom_site_fract_x
 _atom_site_fract_y
 _atom_site_fract_z
 _atom_site_occupancy
  V  V0  1  0.33333333  0.66666667  0.02165567  1
  V  V1  1  0.33333333  0.66666667  0.80962267  1
  V  V2  1  0.33333333  0.66666667  0.31063167  1
  V  V3  1  0.00000000  0.00000000  0.35498900  1
  V  V4  1  0.00000000  0.00000000  0.14295600  1
  V  V5  1  0.00000000  0.00000000  0.64396500  1
  V  V6  1  0.66666667  0.33333333  0.68832233  1
  V  V7  1  0.66666667  0.33333333  0.47628933  1
  V  V8  1  0.66666667  0.33333333  0.97729833  1
  Cr  Cr9  1  0.33333333  0.66666667  0.66525167  1
  Cr  Cr10  1  0.33333333  0.66666667  0.16555867  1
  Cr  Cr11  1  0.00000000  0.00000000  0.99858500  1
  Cr  Cr12  1  0.00000000  0.00000000  0.49889200  1
  Cr  Cr13  1  0.66666667  0.33333333  0.33191833  1
  Cr  Cr14  1  0.66666667  0.33333333  0.83222533  1
  Ni  Ni15  1  0.33333333  0.66666667  0.52288367  1
  Ni  Ni16  1  0.00000000  0.00000000  0.85621700  1
  Ni  Ni17  1  0.66666667  0.33333333  0.18955033  1
  P  P18  1  0.66840700  0.62908400  0.08359200  1
  P  P19  1  0.96067700  0.33159300  0.08359200  1
  P  P20  1  0.37091600  0.03932300  0.08359200  1
  P  P21  1  0.29518967  0.29454533  0.25036733  1
  P  P22  1  0.70545467  0.00064433  0.25036733  1
  P  P23  1  0.99935567  0.70481033  0.25036733  1
  P  P24  1  0.33507367  0.96241733  0.41692533  1
  P  P25  1  0.62734367  0.66492633  0.41692533  1
  P  P26  1  0.03758267  0.37265633  0.41692533  1
  P  P27  1  0.96185633  0.62787867  0.58370067  1
  P  P28  1  0.37212133  0.33397767  0.58370067  1
  P  P29  1  0.66602233  0.03814367  0.58370067  1
  P  P30  1  0.00174033  0.29575067  0.75025867  1
  P  P31  1  0.29401033  0.99825967  0.75025867  1
  P  P32  1  0.70424933  0.70598967  0.75025867  1
  P  P33  1  0.62852300  0.96121200  0.91703400  1
  P  P34  1  0.03878800  0.66731100  0.91703400  1
  P  P35  1  0.33268900  0.37147700  0.91703400  1
  O  O36  1  0.53106233  0.67178667  0.35520667  1
  O  O37  1  0.14072433  0.46893767  0.35520667  1
  O  O38  1  0.32821333  0.85927567  0.35520667  1
  O  O39  1  0.83571667  0.82171433  0.07201333  1
  O  O40  1  0.67182967  0.54149833  0.14579033  1
  O  O41  1  0.50092300  0.65833500  0.08847100  1
  O  O42  1  0.98599767  0.16428333  0.07201333  1
  O  O43  1  0.15741200  0.49907700  0.08847100  1
  O  O44  1  0.20049433  0.19408167  0.18940967  1
  O  O45  1  0.34166500  0.84258800  0.08847100  1
  O  O46  1  0.48201967  0.31440633  0.26302133  1
  O  O47  1  0.80591833  0.00641267  0.18940967  1
  O  O48  1  0.86966867  0.32817033  0.14579033  1
  O  O49  1  0.17828567  0.01400233  0.07201333  1
  O  O50  1  0.31810833  0.48631167  0.24232067  1
  O  O51  1  0.45850167  0.13033133  0.14579033  1
  O  O52  1  0.51368833  0.83179667  0.24232067  1
  O  O53  1  0.68559367  0.16761333  0.26302133  1
  O  O54  1  0.16820333  0.68189167  0.24232067  1
  O  O55  1  0.99358733  0.79950567  0.18940967  1
  O  O56  1  0.83238667  0.51798033  0.26302133  1
  O  O57  1  0.34901700  0.48357300  0.97794000  1
  O  O58  1  0.51642700  0.86544400  0.97794000  1
  O  O59  1  0.13455600  0.65098300  0.97794000  1
  O  O60  1  0.19772900  0.00512000  0.68854000  1
  O  O61  1  0.80739100  0.80227100  0.68854000  1
  O  O62  1  0.99488000  0.19260900  0.68854000  1
  O  O63  1  0.50238333  0.15504767  0.40534667  1
  O  O64  1  0.33849633  0.87483167  0.47912367  1
  O  O65  1  0.16758967  0.99166833  0.42180433  1
  O  O66  1  0.65266433  0.49761667  0.40534667  1
  O  O67  1  0.82407867  0.83241033  0.42180433  1
  O  O68  1  0.86716100  0.52741500  0.52274300  1
  O  O69  1  0.00833167  0.17592133  0.42180433  1
  O  O70  1  0.14868633  0.64773967  0.59635467  1
  O  O71  1  0.47258500  0.33974600  0.52274300  1
  O  O72  1  0.53633533  0.66150367  0.47912367  1
  O  O73  1  0.84495233  0.34733567  0.40534667  1
  O  O74  1  0.98477500  0.81964500  0.57565400  1
  O  O75  1  0.12516833  0.46366467  0.47912367  1
  O  O76  1  0.18035500  0.16513000  0.57565400  1
  O  O77  1  0.35226033  0.50094667  0.59635467  1
  O  O78  1  0.83487000  0.01522500  0.57565400  1
  O  O79  1  0.66025400  0.13283900  0.52274300  1
  O  O80  1  0.49905333  0.85131367  0.59635467  1
  O  O81  1  0.01568367  0.81690633  0.31127333  1
  O  O82  1  0.18309367  0.19877733  0.31127333  1
  O  O83  1  0.80122267  0.98431633  0.31127333  1
  O  O84  1  0.86439567  0.33845333  0.02187333  1
  O  O85  1  0.47405767  0.13560433  0.02187333  1
  O  O86  1  0.66154667  0.52594233  0.02187333  1
  O  O87  1  0.16905000  0.48838100  0.73868000  1
  O  O88  1  0.00516300  0.20816500  0.81245700  1
  O  O89  1  0.83425633  0.32500167  0.75513767  1
  O  O90  1  0.31933100  0.83095000  0.73868000  1
  O  O91  1  0.49074533  0.16574367  0.75513767  1
  O  O92  1  0.53382767  0.86074833  0.85607633  1
  O  O93  1  0.67499833  0.50925467  0.75513767  1
  O  O94  1  0.81535300  0.98107300  0.92968800  1
  O  O95  1  0.13925167  0.67307933  0.85607633  1
  O  O96  1  0.20300200  0.99483700  0.81245700  1
  O  O97  1  0.51161900  0.68066900  0.73868000  1
  O  O98  1  0.65144167  0.15297833  0.90898733  1
  O  O99  1  0.79183500  0.79699800  0.81245700  1
  O  O100  1  0.84702167  0.49846333  0.90898733  1
  O  O101  1  0.01892700  0.83428000  0.92968800  1
  O  O102  1  0.50153667  0.34855833  0.90898733  1
  O  O103  1  0.32692067  0.46617233  0.85607633  1
  O  O104  1  0.16572000  0.18464700  0.92968800  1
  O  O105  1  0.68235033  0.15023967  0.64460667  1
  O  O106  1  0.84976033  0.53211067  0.64460667  1
  O  O107  1  0.46788933  0.31764967  0.64460667  1
