# generated using pymatgen
data_Li4Ti5Ni3O16
_symmetry_space_group_name_H-M   'P 1'
_cell_length_a   10.27136200
_cell_length_b   5.82464000
_cell_length_c   9.55794993
_cell_angle_alpha   90.00000000
_cell_angle_beta   91.34998170
_cell_angle_gamma   90.00000000
_symmetry_Int_Tables_number   1
_chemical_formula_structural   Li4Ti5Ni3O16
_chemical_formula_sum   'Li8 Ti10 Ni6 O32'
_cell_volume   571.66461946
_cell_formula_units_Z   2
loop_
 _symmetry_equiv_pos_site_id
 _symmetry_equiv_pos_as_xyz
  1  'x, y, z'
loop_
 _atom_site_type_symbol
 _atom_site_label
 _atom_site_symmetry_multiplicity
 _atom_site_fract_x
 _atom_site_fract_y
 _atom_site_fract_z
 _atom_site_occupancy
  Li  Li0  1  0.66097200  0.00000000  0.89622700  1
  Li  Li1  1  0.99059200  0.00000000  0.99188000  1
  Li  Li2  1  0.50084600  0.50000000  0.49434900  1
  Li  Li3  1  0.83896200  0.50000000  0.40160100  1
  Li  Li4  1  0.16097200  0.50000000  0.89622700  1
  Li  Li5  1  0.49059200  0.50000000  0.99188000  1
  Li  Li6  1  0.00084600  0.00000000  0.49434900  1
  Li  Li7  1  0.33896200  0.00000000  0.40160100  1
  Ti  Ti8  1  0.59659550  0.24723150  0.22090300  1
  Ti  Ti9  1  0.66654800  0.00000000  0.50102400  1
  Ti  Ti10  1  0.59659550  0.75276850  0.22090300  1
  Ti  Ti11  1  0.67309400  0.50000000  0.72988100  1
  Ti  Ti12  1  0.83980400  0.50000000  0.99657600  1
  Ti  Ti13  1  0.09659550  0.74723150  0.22090300  1
  Ti  Ti14  1  0.16654800  0.50000000  0.50102400  1
  Ti  Ti15  1  0.09659550  0.25276850  0.22090300  1
  Ti  Ti16  1  0.17309400  0.00000000  0.72988100  1
  Ti  Ti17  1  0.33980400  0.00000000  0.99657600  1
  Ni  Ni18  1  0.83145100  0.00000000  0.20881600  1
  Ni  Ni19  1  0.91453200  0.74667700  0.71047000  1
  Ni  Ni20  1  0.91453200  0.25332300  0.71047000  1
  Ni  Ni21  1  0.33145100  0.50000000  0.20881600  1
  Ni  Ni22  1  0.41453200  0.24667700  0.71047000  1
  Ni  Ni23  1  0.41453200  0.75332300  0.71047000  1
  O  O24  1  0.59033100  0.24845000  0.59235800  1
  O  O25  1  0.52139000  0.00000000  0.33709400  1
  O  O26  1  0.65544500  0.00000000  0.10246900  1
  O  O27  1  0.50574400  0.50000000  0.30453100  1
  O  O28  1  0.99475000  0.00000000  0.80165100  1
  O  O29  1  0.59033100  0.75155000  0.59235800  1
  O  O30  1  0.73726850  0.23115850  0.34344000  1
  O  O31  1  0.73726850  0.76884150  0.34344000  1
  O  O32  1  0.66741900  0.50000000  0.09786700  1
  O  O33  1  0.83828200  0.00000000  0.59403700  1
  O  O34  1  0.75082650  0.72329850  0.84230500  1
  O  O35  1  0.75082650  0.27670150  0.84230500  1
  O  O36  1  0.83581300  0.50000000  0.61253300  1
  O  O37  1  0.91924200  0.74111400  0.09008300  1
  O  O38  1  0.97392500  0.50000000  0.83597200  1
  O  O39  1  0.91924200  0.25888600  0.09008300  1
  O  O40  1  0.09033100  0.74845000  0.59235800  1
  O  O41  1  0.02139000  0.50000000  0.33709400  1
  O  O42  1  0.15544500  0.50000000  0.10246900  1
  O  O43  1  0.00574400  0.00000000  0.30453100  1
  O  O44  1  0.49475000  0.50000000  0.80165100  1
  O  O45  1  0.09033100  0.25155000  0.59235800  1
  O  O46  1  0.23726850  0.73115850  0.34344000  1
  O  O47  1  0.23726850  0.26884150  0.34344000  1
  O  O48  1  0.16741900  0.00000000  0.09786700  1
  O  O49  1  0.33828200  0.50000000  0.59403700  1
  O  O50  1  0.25082650  0.22329850  0.84230500  1
  O  O51  1  0.25082650  0.77670150  0.84230500  1
  O  O52  1  0.33581300  0.00000000  0.61253300  1
  O  O53  1  0.41924200  0.24111400  0.09008300  1
  O  O54  1  0.47392500  0.00000000  0.83597200  1
  O  O55  1  0.41924200  0.75888600  0.09008300  1
