# generated using pymatgen
data_Li2VP3O10
_symmetry_space_group_name_H-M   'P 1'
_cell_length_a   14.33883800
_cell_length_b   7.17989600
_cell_length_c   9.71503301
_cell_angle_alpha   90.00000000
_cell_angle_beta   126.96650459
_cell_angle_gamma   90.00000000
_symmetry_Int_Tables_number   1
_chemical_formula_structural   Li2VP3O10
_chemical_formula_sum   'Li8 V4 P12 O40'
_cell_volume   799.12775170
_cell_formula_units_Z   4
loop_
 _symmetry_equiv_pos_site_id
 _symmetry_equiv_pos_as_xyz
  1  'x, y, z'
loop_
 _atom_site_type_symbol
 _atom_site_label
 _atom_site_symmetry_multiplicity
 _atom_site_fract_x
 _atom_site_fract_y
 _atom_site_fract_z
 _atom_site_occupancy
  Li  Li0  1  0.77015200  0.51437100  0.96267600  1
  Li  Li1  1  0.27015200  0.98562900  0.46267600  1
  Li  Li2  1  0.72984800  0.01437100  0.53732400  1
  Li  Li3  1  0.22984800  0.48562900  0.03732400  1
  Li  Li4  1  0.27015200  0.01437100  0.96267600  1
  Li  Li5  1  0.77015200  0.48562900  0.46267600  1
  Li  Li6  1  0.22984800  0.51437100  0.53732400  1
  Li  Li7  1  0.72984800  0.98562900  0.03732400  1
  V  V8  1  0.50000000  0.16587600  0.75000000  1
  V  V9  1  0.50000000  0.83412400  0.25000000  1
  V  V10  1  0.00000000  0.66587600  0.75000000  1
  V  V11  1  0.00000000  0.33412400  0.25000000  1
  P  P12  1  0.87840850  0.31891350  0.81403100  1
  P  P13  1  0.37840850  0.18108650  0.31403100  1
  P  P14  1  0.50000000  0.54913700  0.75000000  1
  P  P15  1  0.50000000  0.45086300  0.25000000  1
  P  P16  1  0.62159150  0.81891350  0.68596900  1
  P  P17  1  0.12159150  0.68108650  0.18596900  1
  P  P18  1  0.37840850  0.81891350  0.81403100  1
  P  P19  1  0.87840850  0.68108650  0.31403100  1
  P  P20  1  0.00000000  0.04913700  0.75000000  1
  P  P21  1  0.00000000  0.95086300  0.25000000  1
  P  P22  1  0.12159150  0.31891350  0.68596900  1
  P  P23  1  0.62159150  0.18108650  0.18596900  1
  O  O24  1  0.60604950  0.42072750  0.84667500  1
  O  O25  1  0.60604950  0.57927250  0.34667500  1
  O  O26  1  0.73220500  0.71569700  0.81097000  1
  O  O27  1  0.90354350  0.37343450  0.98478400  1
  O  O28  1  0.38453650  0.99039550  0.72090000  1
  O  O29  1  0.23220500  0.78430300  0.31097000  1
  O  O30  1  0.49335600  0.68530100  0.87364400  1
  O  O31  1  0.40354350  0.12656550  0.48478400  1
  O  O32  1  0.38453650  0.00960450  0.22090000  1
  O  O33  1  0.50664400  0.68530100  0.62635600  1
  O  O34  1  0.49335600  0.31469900  0.37364400  1
  O  O35  1  0.61546350  0.99039550  0.77910000  1
  O  O36  1  0.59645650  0.87343450  0.51521600  1
  O  O37  1  0.50664400  0.31469900  0.12635600  1
  O  O38  1  0.76779500  0.21569700  0.68903000  1
  O  O39  1  0.61546350  0.00960450  0.27910000  1
  O  O40  1  0.09645650  0.62656550  0.01521600  1
  O  O41  1  0.26779500  0.28430300  0.18903000  1
  O  O42  1  0.39395050  0.42072750  0.65332500  1
  O  O43  1  0.39395050  0.57927250  0.15332500  1
  O  O44  1  0.10604950  0.92072750  0.84667500  1
  O  O45  1  0.10604950  0.07927250  0.34667500  1
  O  O46  1  0.23220500  0.21569700  0.81097000  1
  O  O47  1  0.40354350  0.87343450  0.98478400  1
  O  O48  1  0.88453650  0.49039550  0.72090000  1
  O  O49  1  0.73220500  0.28430300  0.31097000  1
  O  O50  1  0.99335600  0.18530100  0.87364400  1
  O  O51  1  0.90354350  0.62656550  0.48478400  1
  O  O52  1  0.88453650  0.50960450  0.22090000  1
  O  O53  1  0.00664400  0.18530100  0.62635600  1
  O  O54  1  0.99335600  0.81469900  0.37364400  1
  O  O55  1  0.11546350  0.49039550  0.77910000  1
  O  O56  1  0.09645650  0.37343450  0.51521600  1
  O  O57  1  0.00664400  0.81469900  0.12635600  1
  O  O58  1  0.26779500  0.71569700  0.68903000  1
  O  O59  1  0.11546350  0.50960450  0.27910000  1
  O  O60  1  0.59645650  0.12656550  0.01521600  1
  O  O61  1  0.76779500  0.78430300  0.18903000  1
  O  O62  1  0.89395050  0.92072750  0.65332500  1
  O  O63  1  0.89395050  0.07927250  0.15332500  1
