# generated using pymatgen
data_Li3Ti2(NiO4)2
_symmetry_space_group_name_H-M   'P 1'
_cell_length_a   10.29282400
_cell_length_b   5.87041200
_cell_length_c   5.86291345
_cell_angle_alpha   90.00000000
_cell_angle_beta   124.43779486
_cell_angle_gamma   90.00000000
_symmetry_Int_Tables_number   1
_chemical_formula_structural   Li3Ti2(NiO4)2
_chemical_formula_sum   'Li6 Ti4 Ni4 O16'
_cell_volume   292.16891528
_cell_formula_units_Z   2
loop_
 _symmetry_equiv_pos_site_id
 _symmetry_equiv_pos_as_xyz
  1  'x, y, z'
loop_
 _atom_site_type_symbol
 _atom_site_label
 _atom_site_symmetry_multiplicity
 _atom_site_fract_x
 _atom_site_fract_y
 _atom_site_fract_z
 _atom_site_occupancy
  Li  Li0  1  0.25000000  0.25000000  0.00000000  1
  Li  Li1  1  0.00000000  0.50000000  0.50000000  1
  Li  Li2  1  0.25000000  0.75000000  0.00000000  1
  Li  Li3  1  0.75000000  0.75000000  0.00000000  1
  Li  Li4  1  0.50000000  0.00000000  0.50000000  1
  Li  Li5  1  0.75000000  0.25000000  0.00000000  1
  Ti  Ti6  1  0.00000000  0.00000000  0.00000000  1
  Ti  Ti7  1  0.00000000  0.00000000  0.50000000  1
  Ti  Ti8  1  0.50000000  0.50000000  0.00000000  1
  Ti  Ti9  1  0.50000000  0.50000000  0.50000000  1
  Ni  Ni10  1  0.25000000  0.75000000  0.50000000  1
  Ni  Ni11  1  0.25000000  0.25000000  0.50000000  1
  Ni  Ni12  1  0.75000000  0.25000000  0.50000000  1
  Ni  Ni13  1  0.75000000  0.75000000  0.50000000  1
  O  O14  1  0.23436600  0.00000000  0.24413700  1
  O  O15  1  0.26889600  0.50000000  0.28963600  1
  O  O16  1  0.00197900  0.77604600  0.74826900  1
  O  O17  1  0.00197900  0.22395400  0.74826900  1
  O  O18  1  0.49802100  0.27604600  0.25173100  1
  O  O19  1  0.49802100  0.72395400  0.25173100  1
  O  O20  1  0.23110400  0.00000000  0.71036400  1
  O  O21  1  0.26563400  0.50000000  0.75586300  1
  O  O22  1  0.73436600  0.50000000  0.24413700  1
  O  O23  1  0.76889600  0.00000000  0.28963600  1
  O  O24  1  0.50197900  0.27604600  0.74826900  1
  O  O25  1  0.50197900  0.72395400  0.74826900  1
  O  O26  1  0.99802100  0.77604600  0.25173100  1
  O  O27  1  0.99802100  0.22395400  0.25173100  1
  O  O28  1  0.73110400  0.50000000  0.71036400  1
  O  O29  1  0.76563400  0.00000000  0.75586300  1
