# generated using pymatgen
data_Li5Nb2Ni5O12
_symmetry_space_group_name_H-M   'P 1'
_cell_length_a   5.12646600
_cell_length_b   9.14445000
_cell_length_c   10.03261935
_cell_angle_alpha   90.00000000
_cell_angle_beta   101.74426503
_cell_angle_gamma   90.00000000
_symmetry_Int_Tables_number   1
_chemical_formula_structural   Li5Nb2Ni5O12
_chemical_formula_sum   'Li10 Nb4 Ni10 O24'
_cell_volume   460.47060223
_cell_formula_units_Z   2
loop_
 _symmetry_equiv_pos_site_id
 _symmetry_equiv_pos_as_xyz
  1  'x, y, z'
loop_
 _atom_site_type_symbol
 _atom_site_label
 _atom_site_symmetry_multiplicity
 _atom_site_fract_x
 _atom_site_fract_y
 _atom_site_fract_z
 _atom_site_occupancy
  Li  Li0  1  0.74969350  0.93185550  0.74532700  1
  Li  Li1  1  0.25441600  0.57113100  0.25535700  1
  Li  Li2  1  0.25030650  0.93185550  0.25467300  1
  Li  Li3  1  0.74558400  0.57113100  0.74464300  1
  Li  Li4  1  0.00000000  0.92161200  0.50000000  1
  Li  Li5  1  0.24969350  0.43185550  0.74532700  1
  Li  Li6  1  0.75441600  0.07113100  0.25535700  1
  Li  Li7  1  0.75030650  0.43185550  0.25467300  1
  Li  Li8  1  0.24558400  0.07113100  0.74464300  1
  Li  Li9  1  0.50000000  0.42161200  0.50000000  1
  Nb  Nb10  1  0.50000000  0.75347800  0.50000000  1
  Nb  Nb11  1  0.00000000  0.74732200  0.00000000  1
  Nb  Nb12  1  0.00000000  0.25347800  0.50000000  1
  Nb  Nb13  1  0.50000000  0.24732200  0.00000000  1
  Ni  Ni14  1  0.50000000  0.57797900  0.00000000  1
  Ni  Ni15  1  0.75536600  0.75149600  0.25300300  1
  Ni  Ni16  1  0.24463400  0.75149600  0.74699700  1
  Ni  Ni17  1  0.50000000  0.91712900  0.00000000  1
  Ni  Ni18  1  0.00000000  0.58266400  0.50000000  1
  Ni  Ni19  1  0.00000000  0.07797900  0.00000000  1
  Ni  Ni20  1  0.25536600  0.25149600  0.25300300  1
  Ni  Ni21  1  0.74463400  0.25149600  0.74699700  1
  Ni  Ni22  1  0.00000000  0.41712900  0.00000000  1
  Ni  Ni23  1  0.50000000  0.08266400  0.50000000  1
  O  O24  1  0.62538350  0.59616450  0.37915800  1
  O  O25  1  0.37461650  0.59616450  0.62084200  1
  O  O26  1  0.62618950  0.74766950  0.88223700  1
  O  O27  1  0.37381050  0.74766950  0.11776300  1
  O  O28  1  0.61798300  0.90932400  0.38087100  1
  O  O29  1  0.38201700  0.90932400  0.61912900  1
  O  O30  1  0.12284950  0.58454050  0.87669800  1
  O  O31  1  0.87715050  0.58454050  0.12330200  1
  O  O32  1  0.13333450  0.74697750  0.38037700  1
  O  O33  1  0.86666550  0.74697750  0.61962300  1
  O  O34  1  0.12248900  0.91075000  0.87591700  1
  O  O35  1  0.87751100  0.91075000  0.12408300  1
  O  O36  1  0.12538350  0.09616450  0.37915800  1
  O  O37  1  0.87461650  0.09616450  0.62084200  1
  O  O38  1  0.12618950  0.24766950  0.88223700  1
  O  O39  1  0.87381050  0.24766950  0.11776300  1
  O  O40  1  0.11798300  0.40932400  0.38087100  1
  O  O41  1  0.88201700  0.40932400  0.61912900  1
  O  O42  1  0.62284950  0.08454050  0.87669800  1
  O  O43  1  0.37715050  0.08454050  0.12330200  1
  O  O44  1  0.63333450  0.24697750  0.38037700  1
  O  O45  1  0.36666550  0.24697750  0.61962300  1
  O  O46  1  0.62248900  0.41075000  0.87591700  1
  O  O47  1  0.37751100  0.41075000  0.12408300  1
