# generated using pymatgen
data_TiAlO3
_symmetry_space_group_name_H-M   'P 1'
_cell_length_a   4.93837212
_cell_length_b   4.93837212
_cell_length_c   13.89818174
_cell_angle_alpha   90.00000000
_cell_angle_beta   90.00000000
_cell_angle_gamma   120.00000000
_symmetry_Int_Tables_number   1
_chemical_formula_structural   TiAlO3
_chemical_formula_sum   'Ti6 Al6 O18'
_cell_volume   293.53253311
_cell_formula_units_Z   6
loop_
 _symmetry_equiv_pos_site_id
 _symmetry_equiv_pos_as_xyz
  1  'x, y, z'
loop_
 _atom_site_type_symbol
 _atom_site_label
 _atom_site_symmetry_multiplicity
 _atom_site_fract_x
 _atom_site_fract_y
 _atom_site_fract_z
 _atom_site_occupancy
  Ti  Ti0  1  0.33333333  0.66666667  0.31567867  1
  Ti  Ti1  1  0.33333333  0.66666667  0.01765467  1
  Ti  Ti2  1  0.00000000  0.00000000  0.64901200  1
  Ti  Ti3  1  0.00000000  0.00000000  0.35098800  1
  Ti  Ti4  1  0.66666667  0.33333333  0.98234533  1
  Ti  Ti5  1  0.66666667  0.33333333  0.68432133  1
  Al  Al6  1  0.66666667  0.33333333  0.18215033  1
  Al  Al7  1  0.00000000  0.00000000  0.15118300  1
  Al  Al8  1  0.33333333  0.66666667  0.51548367  1
  Al  Al9  1  0.66666667  0.33333333  0.48451633  1
  Al  Al10  1  0.00000000  0.00000000  0.84881700  1
  Al  Al11  1  0.33333333  0.66666667  0.81784967  1
  O  O12  1  0.70107967  0.68454033  0.24545833  1
  O  O13  1  0.31545967  0.01653933  0.24545833  1
  O  O14  1  0.98346067  0.29892033  0.24545833  1
  O  O15  1  0.68320600  0.03441300  0.08787500  1
  O  O16  1  0.35120700  0.31679400  0.08787500  1
  O  O17  1  0.96558700  0.64879300  0.08787500  1
  O  O18  1  0.36774633  0.01787367  0.57879167  1
  O  O19  1  0.98212633  0.34987267  0.57879167  1
  O  O20  1  0.65012733  0.63225367  0.57879167  1
  O  O21  1  0.34987267  0.36774633  0.42120833  1
  O  O22  1  0.01787367  0.65012733  0.42120833  1
  O  O23  1  0.63225367  0.98212633  0.42120833  1
  O  O24  1  0.03441300  0.35120700  0.91212500  1
  O  O25  1  0.64879300  0.68320600  0.91212500  1
  O  O26  1  0.31679400  0.96558700  0.91212500  1
  O  O27  1  0.01653933  0.70107967  0.75454167  1
  O  O28  1  0.68454033  0.98346067  0.75454167  1
  O  O29  1  0.29892033  0.31545967  0.75454167  1
