# generated using pymatgen
data_TbNiO3
_symmetry_space_group_name_H-M   'P 1'
_cell_length_a   5.46310997
_cell_length_b   5.46310997
_cell_length_c   12.55764036
_cell_angle_alpha   90.00000000
_cell_angle_beta   90.00000000
_cell_angle_gamma   120.00000000
_symmetry_Int_Tables_number   1
_chemical_formula_structural   TbNiO3
_chemical_formula_sum   'Tb6 Ni6 O18'
_cell_volume   324.57761031
_cell_formula_units_Z   6
loop_
 _symmetry_equiv_pos_site_id
 _symmetry_equiv_pos_as_xyz
  1  'x, y, z'
loop_
 _atom_site_type_symbol
 _atom_site_label
 _atom_site_symmetry_multiplicity
 _atom_site_fract_x
 _atom_site_fract_y
 _atom_site_fract_z
 _atom_site_occupancy
  Tb  Tb0  1  0.33333333  0.66666667  0.91666667  1
  Tb  Tb1  1  0.33333333  0.66666667  0.41666667  1
  Tb  Tb2  1  0.00000000  0.00000000  0.25000000  1
  Tb  Tb3  1  0.00000000  0.00000000  0.75000000  1
  Tb  Tb4  1  0.66666667  0.33333333  0.58333333  1
  Tb  Tb5  1  0.66666667  0.33333333  0.08333333  1
  Ni  Ni6  1  0.00000000  0.00000000  0.00000000  1
  Ni  Ni7  1  0.33333333  0.66666667  0.16666667  1
  Ni  Ni8  1  0.66666667  0.33333333  0.33333333  1
  Ni  Ni9  1  0.00000000  0.00000000  0.50000000  1
  Ni  Ni10  1  0.33333333  0.66666667  0.66666667  1
  Ni  Ni11  1  0.66666667  0.33333333  0.83333333  1
  O  O12  1  0.66666667  0.74715933  0.08333333  1
  O  O13  1  0.41382600  0.41382600  0.25000000  1
  O  O14  1  0.58617400  0.00000000  0.25000000  1
  O  O15  1  0.08049267  0.33333333  0.08333333  1
  O  O16  1  0.25284067  0.91950733  0.08333333  1
  O  O17  1  0.00000000  0.58617400  0.25000000  1
  O  O18  1  0.33333333  0.08049267  0.41666667  1
  O  O19  1  0.08049267  0.74715933  0.58333333  1
  O  O20  1  0.25284067  0.33333333  0.58333333  1
  O  O21  1  0.74715933  0.66666667  0.41666667  1
  O  O22  1  0.91950733  0.25284067  0.41666667  1
  O  O23  1  0.66666667  0.91950733  0.58333333  1
  O  O24  1  0.00000000  0.41382600  0.75000000  1
  O  O25  1  0.74715933  0.08049267  0.91666667  1
  O  O26  1  0.91950733  0.66666667  0.91666667  1
  O  O27  1  0.41382600  0.00000000  0.75000000  1
  O  O28  1  0.58617400  0.58617400  0.75000000  1
  O  O29  1  0.33333333  0.25284067  0.91666667  1
