# generated using pymatgen
data_Li3Co5OF11
_symmetry_space_group_name_H-M   'P 1'
_cell_length_a   5.23416560
_cell_length_b   5.57849398
_cell_length_c   9.07155545
_cell_angle_alpha   105.96628153
_cell_angle_beta   89.96304229
_cell_angle_gamma   117.42631730
_symmetry_Int_Tables_number   1
_chemical_formula_structural   Li3Co5OF11
_chemical_formula_sum   'Li3 Co5 O1 F11'
_cell_volume   223.55771132
_cell_formula_units_Z   1
loop_
 _symmetry_equiv_pos_site_id
 _symmetry_equiv_pos_as_xyz
  1  'x, y, z'
loop_
 _atom_site_type_symbol
 _atom_site_label
 _atom_site_symmetry_multiplicity
 _atom_site_fract_x
 _atom_site_fract_y
 _atom_site_fract_z
 _atom_site_occupancy
  Li  Li0  1  0.79017929  0.63596982  0.94165414  1
  Li  Li1  1  0.27805438  0.13296509  0.42299632  1
  Li  Li2  1  0.21190706  0.35006804  0.07288087  1
  Co  Co3  1  0.47882505  0.12648731  0.82624333  1
  Co  Co4  1  0.96858361  0.63380368  0.33500045  1
  Co  Co5  1  0.02258336  0.39988295  0.66881523  1
  Co  Co6  1  0.51831326  0.86536764  0.17203756  1
  Co  Co7  1  0.74385442  0.86080511  0.57345802  1
  O  O8  1  0.97159371  0.71852659  0.52431460  1
  F  F9  1  0.02847288  0.98154346  0.77901689  1
  F  F10  1  0.51994489  0.47032464  0.27140793  1
  F  F11  1  0.57049985  0.11063062  0.62895017  1
  F  F12  1  0.92455572  0.37348784  0.87654473  1
  F  F13  1  0.46524327  0.21196553  0.02673286  1
  F  F14  1  0.52326697  0.77916908  0.96747707  1
  F  F15  1  0.04169744  0.28106163  0.47067085  1
  F  F16  1  0.06928306  0.63754948  0.13352139  1
  F  F17  1  0.44599745  0.88231509  0.37477344  1
  F  F18  1  0.46914656  0.51886564  0.72164933  1
  F  F19  1  0.95799877  0.02921075  0.21185483  1
