# generated using pymatgen
data_ScVO3
_symmetry_space_group_name_H-M   'P 1'
_cell_length_a   5.10902500
_cell_length_b   5.40277200
_cell_length_c   7.81713000
_cell_angle_alpha   90.00000000
_cell_angle_beta   90.00000000
_cell_angle_gamma   90.00000000
_symmetry_Int_Tables_number   1
_chemical_formula_structural   ScVO3
_chemical_formula_sum   'Sc4 V4 O12'
_cell_volume   215.77543593
_cell_formula_units_Z   4
loop_
 _symmetry_equiv_pos_site_id
 _symmetry_equiv_pos_as_xyz
  1  'x, y, z'
loop_
 _atom_site_type_symbol
 _atom_site_label
 _atom_site_symmetry_multiplicity
 _atom_site_fract_x
 _atom_site_fract_y
 _atom_site_fract_z
 _atom_site_occupancy
  Sc  Sc0  1  0.98108950  0.06130900  0.75000000  1
  Sc  Sc1  1  0.48108950  0.43869100  0.25000000  1
  Sc  Sc2  1  0.51891050  0.56130900  0.75000000  1
  Sc  Sc3  1  0.01891050  0.93869100  0.25000000  1
  V  V4  1  0.50000000  0.00000000  0.50000000  1
  V  V5  1  0.50000000  0.00000000  0.00000000  1
  V  V6  1  0.00000000  0.50000000  0.50000000  1
  V  V7  1  0.00000000  0.50000000  0.00000000  1
  O  O8  1  0.64522050  0.07448000  0.25000000  1
  O  O9  1  0.18387050  0.19226000  0.07542450  1
  O  O10  1  0.18387050  0.19226000  0.42457550  1
  O  O11  1  0.68387050  0.30774000  0.57542450  1
  O  O12  1  0.68387050  0.30774000  0.92457550  1
  O  O13  1  0.14522050  0.42552000  0.75000000  1
  O  O14  1  0.85477950  0.57448000  0.25000000  1
  O  O15  1  0.31612950  0.69226000  0.07542450  1
  O  O16  1  0.31612950  0.69226000  0.42457550  1
  O  O17  1  0.81612950  0.80774000  0.57542450  1
  O  O18  1  0.81612950  0.80774000  0.92457550  1
  O  O19  1  0.35477950  0.92552000  0.75000000  1
