# generated using pymatgen
data_Y(Bi3O5)4
_symmetry_space_group_name_H-M   'P 1'
_cell_length_a   10.35866400
_cell_length_b   10.35866400
_cell_length_c   10.35866400
_cell_angle_alpha   90.00000000
_cell_angle_beta   90.00000000
_cell_angle_gamma   90.00000000
_symmetry_Int_Tables_number   1
_chemical_formula_structural   Y(Bi3O5)4
_chemical_formula_sum   'Y2 Bi24 O40'
_cell_volume   1111.50453444
_cell_formula_units_Z   2
loop_
 _symmetry_equiv_pos_site_id
 _symmetry_equiv_pos_as_xyz
  1  'x, y, z'
loop_
 _atom_site_type_symbol
 _atom_site_label
 _atom_site_symmetry_multiplicity
 _atom_site_fract_x
 _atom_site_fract_y
 _atom_site_fract_z
 _atom_site_occupancy
  Y  Y0  1  0.00000000  0.00000000  0.00000000  1
  Y  Y1  1  0.50000000  0.50000000  0.50000000  1
  Bi  Bi2  1  0.81816350  0.49313450  0.32396450  1
  Bi  Bi3  1  0.99313450  0.17603550  0.68183650  1
  Bi  Bi4  1  0.00686550  0.17603550  0.31816350  1
  Bi  Bi5  1  0.17603550  0.31816350  0.00686550  1
  Bi  Bi6  1  0.17603550  0.68183650  0.99313450  1
  Bi  Bi7  1  0.18183650  0.50686550  0.32396450  1
  Bi  Bi8  1  0.31816350  0.00686550  0.17603550  1
  Bi  Bi9  1  0.32396450  0.18183650  0.50686550  1
  Bi  Bi10  1  0.32396450  0.81816350  0.49313450  1
  Bi  Bi11  1  0.49313450  0.32396450  0.81816350  1
  Bi  Bi12  1  0.50686550  0.32396450  0.18183650  1
  Bi  Bi13  1  0.68183650  0.99313450  0.17603550  1
  Bi  Bi14  1  0.31816350  0.99313450  0.82396450  1
  Bi  Bi15  1  0.49313450  0.67603550  0.18183650  1
  Bi  Bi16  1  0.50686550  0.67603550  0.81816350  1
  Bi  Bi17  1  0.67603550  0.81816350  0.50686550  1
  Bi  Bi18  1  0.67603550  0.18183650  0.49313450  1
  Bi  Bi19  1  0.68183650  0.00686550  0.82396450  1
  Bi  Bi20  1  0.81816350  0.50686550  0.67603550  1
  Bi  Bi21  1  0.82396450  0.68183650  0.00686550  1
  Bi  Bi22  1  0.82396450  0.31816350  0.99313450  1
  Bi  Bi23  1  0.99313450  0.82396450  0.31816350  1
  Bi  Bi24  1  0.00686550  0.82396450  0.68183650  1
  Bi  Bi25  1  0.18183650  0.49313450  0.67603550  1
  O  O26  1  0.67594050  0.32405950  0.32405950  1
  O  O27  1  0.86898900  0.24452300  0.50921000  1
  O  O28  1  0.87788100  0.12211900  0.12211900  1
  O  O29  1  0.99079000  0.36898900  0.25547700  1
  O  O30  1  0.00921000  0.63101100  0.25547700  1
  O  O31  1  0.12211900  0.87788100  0.12211900  1
  O  O32  1  0.12211900  0.12211900  0.87788100  1
  O  O33  1  0.13101100  0.24452300  0.49079000  1
  O  O34  1  0.17594050  0.17594050  0.17594050  1
  O  O35  1  0.25547700  0.99079000  0.36898900  1
  O  O36  1  0.25547700  0.00921000  0.63101100  1
  O  O37  1  0.24452300  0.50921000  0.86898900  1
  O  O38  1  0.24452300  0.49079000  0.13101100  1
  O  O39  1  0.32405950  0.67594050  0.32405950  1
  O  O40  1  0.32405950  0.32405950  0.67594050  1
  O  O41  1  0.36898900  0.25547700  0.99079000  1
  O  O42  1  0.37788100  0.37788100  0.37788100  1
  O  O43  1  0.49079000  0.13101100  0.24452300  1
  O  O44  1  0.50921000  0.86898900  0.24452300  1
  O  O45  1  0.63101100  0.25547700  0.00921000  1
  O  O46  1  0.17594050  0.82405950  0.82405950  1
  O  O47  1  0.36898900  0.74452300  0.00921000  1
  O  O48  1  0.37788100  0.62211900  0.62211900  1
  O  O49  1  0.49079000  0.86898900  0.75547700  1
  O  O50  1  0.50921000  0.13101100  0.75547700  1
  O  O51  1  0.62211900  0.37788100  0.62211900  1
  O  O52  1  0.62211900  0.62211900  0.37788100  1
  O  O53  1  0.63101100  0.74452300  0.99079000  1
  O  O54  1  0.67594050  0.67594050  0.67594050  1
  O  O55  1  0.75547700  0.49079000  0.86898900  1
  O  O56  1  0.75547700  0.50921000  0.13101100  1
  O  O57  1  0.74452300  0.00921000  0.36898900  1
  O  O58  1  0.74452300  0.99079000  0.63101100  1
  O  O59  1  0.82405950  0.17594050  0.82405950  1
  O  O60  1  0.82405950  0.82405950  0.17594050  1
  O  O61  1  0.86898900  0.75547700  0.49079000  1
  O  O62  1  0.87788100  0.87788100  0.87788100  1
  O  O63  1  0.99079000  0.63101100  0.74452300  1
  O  O64  1  0.00921000  0.36898900  0.74452300  1
  O  O65  1  0.13101100  0.75547700  0.50921000  1
