# generated using pymatgen
data_Li4FeCo9O20
_symmetry_space_group_name_H-M   'P 1'
_cell_length_a   4.90562573
_cell_length_b   7.51605329
_cell_length_c   10.03872505
_cell_angle_alpha   80.81027475
_cell_angle_beta   85.33695313
_cell_angle_gamma   71.03582319
_symmetry_Int_Tables_number   1
_chemical_formula_structural   Li4FeCo9O20
_chemical_formula_sum   'Li4 Fe1 Co9 O20'
_cell_volume   345.38272543
_cell_formula_units_Z   1
loop_
 _symmetry_equiv_pos_site_id
 _symmetry_equiv_pos_as_xyz
  1  'x, y, z'
loop_
 _atom_site_type_symbol
 _atom_site_label
 _atom_site_symmetry_multiplicity
 _atom_site_fract_x
 _atom_site_fract_y
 _atom_site_fract_z
 _atom_site_occupancy
  Li  Li0  1  0.30313100  0.92051400  0.49734800  1
  Li  Li1  1  0.50197800  0.48230200  0.50093300  1
  Li  Li2  1  0.79506600  0.41970300  0.99987800  1
  Li  Li3  1  0.01527900  0.98329900  0.00314200  1
  Fe  Fe4  1  0.94575900  0.84381600  0.74722800  1
  Co  Co5  1  0.65086000  0.94976100  0.24983600  1
  Co  Co6  1  0.54809600  0.64799900  0.75183000  1
  Co  Co7  1  0.25139100  0.74994100  0.24837500  1
  Co  Co8  1  0.85102400  0.55127800  0.25144600  1
  Co  Co9  1  0.14989500  0.44723300  0.75016300  1
  Co  Co10  1  0.74973700  0.25087900  0.74882300  1
  Co  Co11  1  0.44946100  0.34989100  0.24851600  1
  Co  Co12  1  0.34878000  0.05164800  0.75149400  1
  Co  Co13  1  0.04927800  0.15038000  0.25186400  1
  O  O14  1  0.98518800  0.92891600  0.34832900  1
  O  O15  1  0.59603600  0.87080400  0.64675000  1
  O  O16  1  0.28745900  0.83579600  0.85254100  1
  O  O17  1  0.31522100  0.97136700  0.15192900  1
  O  O18  1  0.92831800  0.77246900  0.15195000  1
  O  O19  1  0.86763100  0.61800400  0.85260100  1
  O  O20  1  0.56811800  0.73159600  0.35103500  1
  O  O21  1  0.24300900  0.66152700  0.64477800  1
  O  O22  1  0.81511600  0.46980100  0.65241400  1
  O  O23  1  0.52724000  0.56552900  0.15235600  1
  O  O24  1  0.48335400  0.42779400  0.84781000  1
  O  O25  1  0.18829700  0.52948100  0.34688600  1
  O  O26  1  0.76896200  0.33311800  0.34783200  1
  O  O27  1  0.42447100  0.27012300  0.65265300  1
  O  O28  1  0.06899600  0.22968900  0.85145100  1
  O  O29  1  0.11789900  0.36880300  0.15349700  1
  O  O30  1  0.67174700  0.03910600  0.84948800  1
  O  O31  1  0.73116600  0.17067500  0.14942800  1
  O  O32  1  0.37365200  0.13010900  0.34690900  1
  O  O33  1  0.03635200  0.07744800  0.64876700  1
