# generated using pymatgen
data_LiMn(SiO3)2
_symmetry_space_group_name_H-M   'P 1'
_cell_length_a   10.93333679
_cell_length_b   9.02931304
_cell_length_c   5.43510464
_cell_angle_alpha   90.00000000
_cell_angle_beta   115.81842081
_cell_angle_gamma   90.00000000
_symmetry_Int_Tables_number   1
_chemical_formula_structural   LiMn(SiO3)2
_chemical_formula_sum   'Li4 Mn4 Si8 O24'
_cell_volume   482.99665751
_cell_formula_units_Z   4
loop_
 _symmetry_equiv_pos_site_id
 _symmetry_equiv_pos_as_xyz
  1  'x, y, z'
loop_
 _atom_site_type_symbol
 _atom_site_label
 _atom_site_symmetry_multiplicity
 _atom_site_fract_x
 _atom_site_fract_y
 _atom_site_fract_z
 _atom_site_occupancy
  Li  Li0  1  0.00000000  0.84350000  0.25000000  1
  Li  Li1  1  0.00000000  0.15650000  0.75000000  1
  Li  Li2  1  0.50000000  0.34350000  0.25000000  1
  Li  Li3  1  0.50000000  0.65650000  0.75000000  1
  Mn  Mn4  1  0.00000000  0.22198100  0.25000000  1
  Mn  Mn5  1  0.00000000  0.77801900  0.75000000  1
  Mn  Mn6  1  0.50000000  0.72198100  0.25000000  1
  Mn  Mn7  1  0.50000000  0.27801900  0.75000000  1
  Si  Si8  1  0.21194000  0.59154800  0.20271150  1
  Si  Si9  1  0.21194000  0.40845200  0.70271150  1
  Si  Si10  1  0.78806000  0.59154800  0.29728850  1
  Si  Si11  1  0.78806000  0.40845200  0.79728850  1
  Si  Si12  1  0.71194000  0.09154800  0.20271150  1
  Si  Si13  1  0.71194000  0.90845200  0.70271150  1
  Si  Si14  1  0.28806000  0.09154800  0.29728850  1
  Si  Si15  1  0.28806000  0.90845200  0.79728850  1
  O  O16  1  0.37446200  0.62464500  0.35949650  1
  O  O17  1  0.37446200  0.37535500  0.85949650  1
  O  O18  1  0.62553800  0.62464500  0.14050350  1
  O  O19  1  0.62553800  0.37535500  0.64050350  1
  O  O20  1  0.16851275  0.50705775  0.90621400  1
  O  O21  1  0.16851275  0.49294225  0.40621400  1
  O  O22  1  0.83148725  0.50705775  0.59378600  1
  O  O23  1  0.83148725  0.49294225  0.09378600  1
  O  O24  1  0.11838675  0.74138475  0.12105300  1
  O  O25  1  0.11838675  0.25861525  0.62105300  1
  O  O26  1  0.88161325  0.74138475  0.37894700  1
  O  O27  1  0.88161325  0.25861525  0.87894700  1
  O  O28  1  0.87446200  0.12464500  0.35949650  1
  O  O29  1  0.87446200  0.87535500  0.85949650  1
  O  O30  1  0.12553800  0.12464500  0.14050350  1
  O  O31  1  0.12553800  0.87535500  0.64050350  1
  O  O32  1  0.66851275  0.00705775  0.90621400  1
  O  O33  1  0.66851275  0.99294225  0.40621400  1
  O  O34  1  0.33148725  0.00705775  0.59378600  1
  O  O35  1  0.33148725  0.99294225  0.09378600  1
  O  O36  1  0.61838675  0.24138475  0.12105300  1
  O  O37  1  0.61838675  0.75861525  0.62105300  1
  O  O38  1  0.38161325  0.24138475  0.37894700  1
  O  O39  1  0.38161325  0.75861525  0.87894700  1
