# generated using pymatgen
data_Li3MnV4O8
_symmetry_space_group_name_H-M   'P 1'
_cell_length_a   10.43267600
_cell_length_b   6.05349400
_cell_length_c   6.10974062
_cell_angle_alpha   90.00000000
_cell_angle_beta   125.58109497
_cell_angle_gamma   90.00000000
_symmetry_Int_Tables_number   1
_chemical_formula_structural   Li3MnV4O8
_chemical_formula_sum   'Li6 Mn2 V8 O16'
_cell_volume   313.81343469
_cell_formula_units_Z   2
loop_
 _symmetry_equiv_pos_site_id
 _symmetry_equiv_pos_as_xyz
  1  'x, y, z'
loop_
 _atom_site_type_symbol
 _atom_site_label
 _atom_site_symmetry_multiplicity
 _atom_site_fract_x
 _atom_site_fract_y
 _atom_site_fract_z
 _atom_site_occupancy
  Li  Li0  1  0.25000000  0.75000000  0.00000000  1
  Li  Li1  1  0.75000000  0.75000000  0.00000000  1
  Li  Li2  1  0.00000000  0.00000000  0.50000000  1
  Li  Li3  1  0.75000000  0.25000000  0.00000000  1
  Li  Li4  1  0.25000000  0.25000000  0.00000000  1
  Li  Li5  1  0.50000000  0.50000000  0.50000000  1
  Mn  Mn6  1  0.00000000  0.50000000  0.00000000  1
  Mn  Mn7  1  0.50000000  0.00000000  0.00000000  1
  V  V8  1  0.50000000  0.00000000  0.50000000  1
  V  V9  1  0.00000000  0.00000000  0.00000000  1
  V  V10  1  0.25000000  0.25000000  0.50000000  1
  V  V11  1  0.25000000  0.75000000  0.50000000  1
  V  V12  1  0.00000000  0.50000000  0.50000000  1
  V  V13  1  0.50000000  0.50000000  0.00000000  1
  V  V14  1  0.75000000  0.75000000  0.50000000  1
  V  V15  1  0.75000000  0.25000000  0.50000000  1
  O  O16  1  0.24900700  0.00000000  0.72118600  1
  O  O17  1  0.00898000  0.74717600  0.26876400  1
  O  O18  1  0.50898000  0.75282400  0.26876400  1
  O  O19  1  0.25099300  0.50000000  0.27881400  1
  O  O20  1  0.24151700  0.50000000  0.73772300  1
  O  O21  1  0.49102000  0.75282400  0.73123600  1
  O  O22  1  0.99102000  0.74717600  0.73123600  1
  O  O23  1  0.25848300  0.00000000  0.26227700  1
  O  O24  1  0.74900700  0.50000000  0.72118600  1
  O  O25  1  0.50898000  0.24717600  0.26876400  1
  O  O26  1  0.00898000  0.25282400  0.26876400  1
  O  O27  1  0.75099300  0.00000000  0.27881400  1
  O  O28  1  0.74151700  0.00000000  0.73772300  1
  O  O29  1  0.99102000  0.25282400  0.73123600  1
  O  O30  1  0.49102000  0.24717600  0.73123600  1
  O  O31  1  0.75848300  0.50000000  0.26227700  1
