# generated using pymatgen
data_LiV2(PO4)2
_symmetry_space_group_name_H-M   'P 1'
_cell_length_a   4.83905272
_cell_length_b   10.32936400
_cell_length_c   5.93255288
_cell_angle_alpha   90.00000000
_cell_angle_beta   90.93931045
_cell_angle_gamma   90.00000000
_symmetry_Int_Tables_number   1
_chemical_formula_structural   LiV2(PO4)2
_chemical_formula_sum   'Li2 V4 P4 O16'
_cell_volume   296.49487426
_cell_formula_units_Z   2
loop_
 _symmetry_equiv_pos_site_id
 _symmetry_equiv_pos_as_xyz
  1  'x, y, z'
loop_
 _atom_site_type_symbol
 _atom_site_label
 _atom_site_symmetry_multiplicity
 _atom_site_fract_x
 _atom_site_fract_y
 _atom_site_fract_z
 _atom_site_occupancy
  Li  Li0  1  0.74740950  0.75027000  0.23338450  1
  Li  Li1  1  0.25259050  0.25027000  0.76661550  1
  V  V2  1  0.27082650  0.97389800  0.00244950  1
  V  V3  1  0.21939750  0.52377500  0.49921050  1
  V  V4  1  0.72917350  0.47389800  0.99755050  1
  V  V5  1  0.78060250  0.02377500  0.50078950  1
  P  P6  1  0.34854850  0.84221700  0.50271750  1
  P  P7  1  0.17447150  0.65472600  0.00136250  1
  P  P8  1  0.65145150  0.34221700  0.49728250  1
  P  P9  1  0.82552850  0.15472600  0.99863750  1
  O  O10  1  0.48785750  0.92110500  0.69990650  1
  O  O11  1  0.50583150  0.90908700  0.29820350  1
  O  O12  1  0.03512250  0.86048700  0.48863350  1
  O  O13  1  0.06046250  0.79219500  0.00826550  1
  O  O14  1  0.43372750  0.69905100  0.49985150  1
  O  O15  1  0.48797050  0.64613800  0.01479850  1
  O  O16  1  0.04985850  0.57558300  0.79510050  1
  O  O17  1  0.03068750  0.57954800  0.20809650  1
  O  O18  1  0.51214250  0.42110500  0.30009350  1
  O  O19  1  0.49416850  0.40908700  0.70179650  1
  O  O20  1  0.96487750  0.36048700  0.51136650  1
  O  O21  1  0.93953750  0.29219500  0.99173450  1
  O  O22  1  0.56627250  0.19905100  0.50014850  1
  O  O23  1  0.51202950  0.14613800  0.98520150  1
  O  O24  1  0.95014150  0.07558300  0.20489950  1
  O  O25  1  0.96931250  0.07954800  0.79190350  1
