# generated using pymatgen
data_Li7Co(OF)3
_symmetry_space_group_name_H-M   'P 1'
_cell_length_a   5.28974541
_cell_length_b   5.68060624
_cell_length_c   5.76031214
_cell_angle_alpha   64.94192324
_cell_angle_beta   69.09868703
_cell_angle_gamma   62.48223476
_symmetry_Int_Tables_number   1
_chemical_formula_structural   Li7Co(OF)3
_chemical_formula_sum   'Li7 Co1 O3 F3'
_cell_volume   136.23708418
_cell_formula_units_Z   1
loop_
 _symmetry_equiv_pos_site_id
 _symmetry_equiv_pos_as_xyz
  1  'x, y, z'
loop_
 _atom_site_type_symbol
 _atom_site_label
 _atom_site_symmetry_multiplicity
 _atom_site_fract_x
 _atom_site_fract_y
 _atom_site_fract_z
 _atom_site_occupancy
  Li  Li0  1  0.11739000  0.77845200  0.59948500  1
  Li  Li1  1  0.44911650  0.14195250  0.63344650  1
  Li  Li2  1  0.38096500  0.31275100  0.98690350  1
  Li  Li3  1  0.60051300  0.76225800  0.99850900  1
  Li  Li4  1  0.51684350  0.88643750  0.37624650  1
  Li  Li5  1  0.88862000  0.22777000  0.33902600  1
  Li  Li6  1  0.78678850  0.44915250  0.66938750  1
  Co  Co7  1  0.05921700  0.91471600  0.99509050  1
  O  O8  1  0.22684350  0.95794150  0.21787400  1
  O  O9  1  0.42492500  0.74907800  0.75445450  1
  O  O10  1  0.77466950  0.07880550  0.76170150  1
  F  F11  1  0.11459850  0.42101550  0.74660800  1
  F  F12  1  0.56724250  0.22667650  0.26875950  1
  F  F13  1  0.85203900  0.59866200  0.26553500  1
