# generated using pymatgen
data_Mn3(O2F)2
_symmetry_space_group_name_H-M   'P 1'
_cell_length_a   9.06310000
_cell_length_b   6.28373600
_cell_length_c   7.60519720
_cell_angle_alpha   90.00000000
_cell_angle_beta   114.59643288
_cell_angle_gamma   90.00000000
_symmetry_Int_Tables_number   1
_chemical_formula_structural   Mn3(O2F)2
_chemical_formula_sum   'Mn12 O16 F8'
_cell_volume   393.81679650
_cell_formula_units_Z   4
loop_
 _symmetry_equiv_pos_site_id
 _symmetry_equiv_pos_as_xyz
  1  'x, y, z'
loop_
 _atom_site_type_symbol
 _atom_site_label
 _atom_site_symmetry_multiplicity
 _atom_site_fract_x
 _atom_site_fract_y
 _atom_site_fract_z
 _atom_site_occupancy
  Mn  Mn0  1  0.16279900  0.50000000  0.17189200  1
  Mn  Mn1  1  0.00000000  0.00000000  0.00000000  1
  Mn  Mn2  1  0.18418400  0.50000000  0.65289000  1
  Mn  Mn3  1  0.00000000  0.00000000  0.50000000  1
  Mn  Mn4  1  0.83720100  0.50000000  0.82810800  1
  Mn  Mn5  1  0.81581600  0.50000000  0.34711000  1
  Mn  Mn6  1  0.66279900  0.00000000  0.17189200  1
  Mn  Mn7  1  0.50000000  0.50000000  0.00000000  1
  Mn  Mn8  1  0.68418400  0.00000000  0.65289000  1
  Mn  Mn9  1  0.50000000  0.50000000  0.50000000  1
  Mn  Mn10  1  0.33720100  0.00000000  0.82810800  1
  Mn  Mn11  1  0.31581600  0.00000000  0.34711000  1
  O  O12  1  0.00000000  0.69806100  0.00000000  1
  O  O13  1  0.17339000  0.19397600  0.65634800  1
  O  O14  1  0.58969500  0.50000000  0.28865200  1
  O  O15  1  0.41030500  0.50000000  0.71134800  1
  O  O16  1  0.17339000  0.80602400  0.65634800  1
  O  O17  1  0.00000000  0.30193900  0.00000000  1
  O  O18  1  0.82661000  0.80602400  0.34365200  1
  O  O19  1  0.82661000  0.19397600  0.34365200  1
  O  O20  1  0.50000000  0.19806100  0.00000000  1
  O  O21  1  0.67339000  0.69397600  0.65634800  1
  O  O22  1  0.08969500  0.00000000  0.28865200  1
  O  O23  1  0.91030500  0.00000000  0.71134800  1
  O  O24  1  0.67339000  0.30602400  0.65634800  1
  O  O25  1  0.50000000  0.80193900  0.00000000  1
  O  O26  1  0.32661000  0.30602400  0.34365200  1
  O  O27  1  0.32661000  0.69397600  0.34365200  1
  F  F28  1  0.96298900  0.50000000  0.64367300  1
  F  F29  1  0.28167300  0.50000000  0.96818200  1
  F  F30  1  0.71832700  0.50000000  0.03181800  1
  F  F31  1  0.03701100  0.50000000  0.35632700  1
  F  F32  1  0.46298900  0.00000000  0.64367300  1
  F  F33  1  0.78167300  0.00000000  0.96818200  1
  F  F34  1  0.21832700  0.00000000  0.03181800  1
  F  F35  1  0.53701100  0.00000000  0.35632700  1
