# generated using pymatgen
data_Li4VGa3O8
_symmetry_space_group_name_H-M   'P 1'
_cell_length_a   5.09480878
_cell_length_b   5.52900893
_cell_length_c   6.49120864
_cell_angle_alpha   90.03542944
_cell_angle_beta   90.05817522
_cell_angle_gamma   90.05645772
_symmetry_Int_Tables_number   1
_chemical_formula_structural   Li4VGa3O8
_chemical_formula_sum   'Li4 V1 Ga3 O8'
_cell_volume   182.85221724
_cell_formula_units_Z   1
loop_
 _symmetry_equiv_pos_site_id
 _symmetry_equiv_pos_as_xyz
  1  'x, y, z'
loop_
 _atom_site_type_symbol
 _atom_site_label
 _atom_site_symmetry_multiplicity
 _atom_site_fract_x
 _atom_site_fract_y
 _atom_site_fract_z
 _atom_site_occupancy
  Li  Li0  1  0.50330800  0.91828100  0.37516100  1
  Li  Li1  1  0.00353100  0.57964400  0.87603000  1
  Li  Li2  1  0.50362300  0.41609900  0.12637700  1
  Li  Li3  1  0.00335800  0.08444650  0.62294850  1
  V  V4  1  0.50257350  0.91632200  0.87229350  1
  Ga  Ga5  1  0.99941550  0.58256200  0.37340350  1
  Ga  Ga6  1  0.50003100  0.41765500  0.62209600  1
  Ga  Ga7  1  0.99781750  0.08368500  0.13025650  1
  O  O8  1  0.11944750  0.93257750  0.88996900  1
  O  O9  1  0.10838800  0.90586150  0.36198650  1
  O  O10  1  0.60801750  0.58130700  0.86106750  1
  O  O11  1  0.63106850  0.57292400  0.38724850  1
  O  O12  1  0.13135150  0.43256150  0.61072000  1
  O  O13  1  0.10771750  0.40713150  0.14002400  1
  O  O14  1  0.60831300  0.09605000  0.63093000  1
  O  O15  1  0.62963750  0.07289150  0.11948800  1
