# generated using pymatgen
data_Li2CrP2O7
_symmetry_space_group_name_H-M   'P 1'
_cell_length_a   5.62603999
_cell_length_b   6.41678567
_cell_length_c   8.90726836
_cell_angle_alpha   109.41886787
_cell_angle_beta   94.60712088
_cell_angle_gamma   105.70710960
_symmetry_Int_Tables_number   1
_chemical_formula_structural   Li2CrP2O7
_chemical_formula_sum   'Li4 Cr2 P4 O14'
_cell_volume   286.76100740
_cell_formula_units_Z   2
loop_
 _symmetry_equiv_pos_site_id
 _symmetry_equiv_pos_as_xyz
  1  'x, y, z'
loop_
 _atom_site_type_symbol
 _atom_site_label
 _atom_site_symmetry_multiplicity
 _atom_site_fract_x
 _atom_site_fract_y
 _atom_site_fract_z
 _atom_site_occupancy
  Li  Li0  1  0.14747100  0.81287100  0.95598000  1
  Li  Li1  1  0.85252900  0.18712900  0.04402000  1
  Li  Li2  1  0.28777500  0.44952900  0.76801500  1
  Li  Li3  1  0.71222500  0.55047100  0.23198500  1
  Cr  Cr4  1  0.87746100  0.76637500  0.61932100  1
  Cr  Cr5  1  0.12253900  0.23362500  0.38067900  1
  P  P6  1  0.24121200  0.74770400  0.40122400  1
  P  P7  1  0.75878800  0.25229600  0.59877600  1
  P  P8  1  0.61836000  0.82551300  0.87897900  1
  P  P9  1  0.38164000  0.17448700  0.12102100  1
  O  O10  1  0.07737200  0.56284700  0.32847700  1
  O  O11  1  0.92262800  0.43715300  0.67152300  1
  O  O12  1  0.06520000  0.88266900  0.42210200  1
  O  O13  1  0.93480000  0.11733100  0.57789800  1
  O  O14  1  0.34648900  0.69752200  0.86476100  1
  O  O15  1  0.65351100  0.30247800  0.13523900  1
  O  O16  1  0.19872300  0.28095000  0.15863100  1
  O  O17  1  0.80127700  0.71905000  0.84136900  1
  O  O18  1  0.27505300  0.13132500  0.95948000  1
  O  O19  1  0.72494700  0.86867500  0.04052000  1
  O  O20  1  0.57232600  0.33807300  0.44529800  1
  O  O21  1  0.42767400  0.66192700  0.55470200  1
  O  O22  1  0.60250300  0.07610400  0.73589300  1
  O  O23  1  0.39749700  0.92389600  0.26410700  1
