# generated using pymatgen
data_Li4Ti3V2Sn3O16
_symmetry_space_group_name_H-M   'P 1'
_cell_length_a   10.69035800
_cell_length_b   6.13900000
_cell_length_c   9.91370520
_cell_angle_alpha   90.00000000
_cell_angle_beta   90.54846100
_cell_angle_gamma   90.00000000
_symmetry_Int_Tables_number   1
_chemical_formula_structural   Li4Ti3V2Sn3O16
_chemical_formula_sum   'Li8 Ti6 V4 Sn6 O32'
_cell_volume   650.58790490
_cell_formula_units_Z   2
loop_
 _symmetry_equiv_pos_site_id
 _symmetry_equiv_pos_as_xyz
  1  'x, y, z'
loop_
 _atom_site_type_symbol
 _atom_site_label
 _atom_site_symmetry_multiplicity
 _atom_site_fract_x
 _atom_site_fract_y
 _atom_site_fract_z
 _atom_site_occupancy
  Li  Li0  1  0.66968400  0.00000000  0.11380200  1
  Li  Li1  1  0.99135000  0.00000000  0.00479500  1
  Li  Li2  1  0.99200300  0.00000000  0.49859300  1
  Li  Li3  1  0.83586900  0.50000000  0.60601900  1
  Li  Li4  1  0.16968400  0.50000000  0.11380200  1
  Li  Li5  1  0.49135000  0.50000000  0.00479500  1
  Li  Li6  1  0.49200300  0.50000000  0.49859300  1
  Li  Li7  1  0.33586900  0.00000000  0.60601900  1
  Ti  Ti8  1  0.83245400  0.00000000  0.78323300  1
  Ti  Ti9  1  0.91531900  0.25235700  0.28471900  1
  Ti  Ti10  1  0.91531900  0.74764300  0.28471900  1
  Ti  Ti11  1  0.33245400  0.50000000  0.78323300  1
  Ti  Ti12  1  0.41531900  0.75235700  0.28471900  1
  Ti  Ti13  1  0.41531900  0.24764300  0.28471900  1
  V  V14  1  0.67057100  0.00000000  0.50817800  1
  V  V15  1  0.83698300  0.50000000  0.01480300  1
  V  V16  1  0.17057100  0.50000000  0.50817800  1
  V  V17  1  0.33698300  0.00000000  0.01480300  1
  Sn  Sn18  1  0.58594250  0.75296950  0.78438700  1
  Sn  Sn19  1  0.58594250  0.24703050  0.78438700  1
  Sn  Sn20  1  0.66908600  0.50000000  0.28967400  1
  Sn  Sn21  1  0.08594250  0.25296950  0.78438700  1
  Sn  Sn22  1  0.08594250  0.74703050  0.78438700  1
  Sn  Sn23  1  0.16908600  0.00000000  0.28967400  1
  O  O24  1  0.57335350  0.74189350  0.39686900  1
  O  O25  1  0.51942300  0.00000000  0.65832000  1
  O  O26  1  0.67481000  0.00000000  0.90060900  1
  O  O27  1  0.99436800  0.00000000  0.68060600  1
  O  O28  1  0.99421400  0.00000000  0.18750000  1
  O  O29  1  0.57335350  0.25810650  0.39686900  1
  O  O30  1  0.74622350  0.78087950  0.66416700  1
  O  O31  1  0.74622350  0.21912050  0.66416700  1
  O  O32  1  0.65579700  0.50000000  0.90418400  1
  O  O33  1  0.84086000  0.00000000  0.38931400  1
  O  O34  1  0.76418850  0.27362750  0.16842000  1
  O  O35  1  0.76418850  0.72637250  0.16842000  1
  O  O36  1  0.84238800  0.50000000  0.39704900  1
  O  O37  1  0.91593250  0.23350350  0.89268800  1
  O  O38  1  0.98098900  0.50000000  0.17319300  1
  O  O39  1  0.91593250  0.76649650  0.89268800  1
  O  O40  1  0.07335350  0.24189350  0.39686900  1
  O  O41  1  0.01942300  0.50000000  0.65832000  1
  O  O42  1  0.17481000  0.50000000  0.90060900  1
  O  O43  1  0.49436800  0.50000000  0.68060600  1
  O  O44  1  0.49421400  0.50000000  0.18750000  1
  O  O45  1  0.07335350  0.75810650  0.39686900  1
  O  O46  1  0.24622350  0.28087950  0.66416700  1
  O  O47  1  0.24622350  0.71912050  0.66416700  1
  O  O48  1  0.15579700  0.00000000  0.90418400  1
  O  O49  1  0.34086000  0.50000000  0.38931400  1
  O  O50  1  0.26418850  0.77362750  0.16842000  1
  O  O51  1  0.26418850  0.22637250  0.16842000  1
  O  O52  1  0.34238800  0.00000000  0.39704900  1
  O  O53  1  0.41593250  0.73350350  0.89268800  1
  O  O54  1  0.48098900  0.00000000  0.17319300  1
  O  O55  1  0.41593250  0.26649650  0.89268800  1
