# generated using pymatgen
data_LiVCr(P2O7)2
_symmetry_space_group_name_H-M   'P 1'
_cell_length_a   4.87152931
_cell_length_b   6.98630692
_cell_length_c   8.11749857
_cell_angle_alpha   90.17214048
_cell_angle_beta   90.57404315
_cell_angle_gamma   107.14289225
_symmetry_Int_Tables_number   1
_chemical_formula_structural   LiVCr(P2O7)2
_chemical_formula_sum   'Li1 V1 Cr1 P4 O14'
_cell_volume   263.97856459
_cell_formula_units_Z   1
loop_
 _symmetry_equiv_pos_site_id
 _symmetry_equiv_pos_as_xyz
  1  'x, y, z'
loop_
 _atom_site_type_symbol
 _atom_site_label
 _atom_site_symmetry_multiplicity
 _atom_site_fract_x
 _atom_site_fract_y
 _atom_site_fract_z
 _atom_site_occupancy
  Li  Li0  1  0.16018300  0.67043200  0.63633400  1
  V  V1  1  0.78212600  0.27105700  0.49194900  1
  Cr  Cr2  1  0.21038300  0.72591500  0.00139100  1
  P  P3  1  0.60239000  0.48221000  0.82076500  1
  P  P4  1  0.77944700  0.90782200  0.22080600  1
  P  P5  1  0.23126500  0.09421700  0.71870100  1
  P  P6  1  0.39279300  0.52187800  0.31604000  1
  O  O7  1  0.97584600  0.16560400  0.66126300  1
  O  O8  1  0.86163600  0.10259900  0.32315500  1
  O  O9  1  0.82284900  0.53274600  0.95751500  1
  O  O10  1  0.74402800  0.48386800  0.64977400  1
  O  O11  1  0.58125800  0.37956600  0.33621600  1
  O  O12  1  0.42269900  0.08323800  0.57034000  1
  O  O13  1  0.41259700  0.25185500  0.85144400  1
  O  O14  1  0.59626500  0.74400400  0.35558500  1
  O  O15  1  0.58844100  0.91106100  0.07248600  1
  O  O16  1  0.39365000  0.60874500  0.81356400  1
  O  O17  1  0.27317500  0.51185100  0.14309900  1
  O  O18  1  0.16313200  0.48452200  0.45140300  1
  O  O19  1  0.13270300  0.89291000  0.80448900  1
  O  O20  1  0.04915600  0.85106400  0.18170400  1
