# generated using pymatgen
data_Na2IrO3
_symmetry_space_group_name_H-M   'P 1'
_cell_length_a   5.54296600
_cell_length_b   9.58635200
_cell_length_c   5.63974194
_cell_angle_alpha   90.00000000
_cell_angle_beta   109.42434317
_cell_angle_gamma   90.00000000
_symmetry_Int_Tables_number   1
_chemical_formula_structural   Na2IrO3
_chemical_formula_sum   'Na8 Ir4 O12'
_cell_volume   282.62073448
_cell_formula_units_Z   4
loop_
 _symmetry_equiv_pos_site_id
 _symmetry_equiv_pos_as_xyz
  1  'x, y, z'
loop_
 _atom_site_type_symbol
 _atom_site_label
 _atom_site_symmetry_multiplicity
 _atom_site_fract_x
 _atom_site_fract_y
 _atom_site_fract_z
 _atom_site_occupancy
  Na  Na0  1  0.00000000  0.00000000  0.00000000  1
  Na  Na1  1  0.50000000  0.00000000  0.50000000  1
  Na  Na2  1  0.50000000  0.33869600  0.50000000  1
  Na  Na3  1  0.50000000  0.66130400  0.50000000  1
  Na  Na4  1  0.50000000  0.50000000  0.00000000  1
  Na  Na5  1  0.00000000  0.50000000  0.50000000  1
  Na  Na6  1  0.00000000  0.83869600  0.50000000  1
  Na  Na7  1  0.00000000  0.16130400  0.50000000  1
  Ir  Ir8  1  0.50000000  0.16687000  0.00000000  1
  Ir  Ir9  1  0.50000000  0.83313000  0.00000000  1
  Ir  Ir10  1  0.00000000  0.66687000  0.00000000  1
  Ir  Ir11  1  0.00000000  0.33313000  0.00000000  1
  O  O12  1  0.25450550  0.18548350  0.20397600  1
  O  O13  1  0.25450550  0.81451650  0.20397600  1
  O  O14  1  0.74549450  0.81451650  0.79602400  1
  O  O15  1  0.74549450  0.18548350  0.79602400  1
  O  O16  1  0.29948900  0.00000000  0.79375900  1
  O  O17  1  0.70051100  0.00000000  0.20624100  1
  O  O18  1  0.75450550  0.68548350  0.20397600  1
  O  O19  1  0.75450550  0.31451650  0.20397600  1
  O  O20  1  0.24549450  0.31451650  0.79602400  1
  O  O21  1  0.24549450  0.68548350  0.79602400  1
  O  O22  1  0.79948900  0.50000000  0.79375900  1
  O  O23  1  0.20051100  0.50000000  0.20624100  1
