# generated using pymatgen
data_K2MnH2OF5
_symmetry_space_group_name_H-M   'P 1'
_cell_length_a   6.09431020
_cell_length_b   8.34541603
_cell_length_c   6.28965559
_cell_angle_alpha   90.00000000
_cell_angle_beta   98.43905526
_cell_angle_gamma   90.00000000
_symmetry_Int_Tables_number   1
_chemical_formula_structural   K2MnH2OF5
_chemical_formula_sum   'K4 Mn2 H4 O2 F10'
_cell_volume   316.42548766
_cell_formula_units_Z   2
loop_
 _symmetry_equiv_pos_site_id
 _symmetry_equiv_pos_as_xyz
  1  'x, y, z'
loop_
 _atom_site_type_symbol
 _atom_site_label
 _atom_site_symmetry_multiplicity
 _atom_site_fract_x
 _atom_site_fract_y
 _atom_site_fract_z
 _atom_site_occupancy
  K  K0  1  0.89988500  0.75000000  0.47980900  1
  K  K1  1  0.10011500  0.25000000  0.52019100  1
  K  K2  1  0.49413500  0.75000000  0.89702100  1
  K  K3  1  0.50586500  0.25000000  0.10297900  1
  Mn  Mn4  1  0.00000000  0.00000000  0.00000000  1
  Mn  Mn5  1  0.00000000  0.50000000  0.00000000  1
  H  H6  1  0.36249500  0.65528400  0.37587100  1
  H  H7  1  0.63750500  0.15528400  0.62412900  1
  H  H8  1  0.63750500  0.34471600  0.62412900  1
  H  H9  1  0.36249500  0.84471600  0.37587100  1
  O  O10  1  0.43364900  0.75000000  0.45119200  1
  O  O11  1  0.56635100  0.25000000  0.54880800  1
  F  F12  1  0.04763500  0.75000000  0.96803800  1
  F  F13  1  0.95236500  0.25000000  0.03196200  1
  F  F14  1  0.79501700  0.50521400  0.73749900  1
  F  F15  1  0.20498300  0.00521400  0.26250100  1
  F  F16  1  0.20498300  0.49478600  0.26250100  1
  F  F17  1  0.79501700  0.99478600  0.73749900  1
  F  F18  1  0.76396900  0.53495000  0.15762200  1
  F  F19  1  0.23603100  0.03495000  0.84237800  1
  F  F20  1  0.23603100  0.46505000  0.84237800  1
  F  F21  1  0.76396900  0.96505000  0.15762200  1
