# generated using pymatgen
data_V11NiO18
_symmetry_space_group_name_H-M   'P 1'
_cell_length_a   5.55317682
_cell_length_b   7.50771359
_cell_length_c   8.84118980
_cell_angle_alpha   112.78270126
_cell_angle_beta   105.48686598
_cell_angle_gamma   96.35790037
_symmetry_Int_Tables_number   1
_chemical_formula_structural   V11NiO18
_chemical_formula_sum   'V11 Ni1 O18'
_cell_volume   317.85227819
_cell_formula_units_Z   1
loop_
 _symmetry_equiv_pos_site_id
 _symmetry_equiv_pos_as_xyz
  1  'x, y, z'
loop_
 _atom_site_type_symbol
 _atom_site_label
 _atom_site_symmetry_multiplicity
 _atom_site_fract_x
 _atom_site_fract_y
 _atom_site_fract_z
 _atom_site_occupancy
  V  V0  1  0.70074100  0.64709300  0.99950300  1
  V  V1  1  0.29609100  0.84921500  0.99794100  1
  V  V2  1  0.03253900  0.48206400  0.66944300  1
  V  V3  1  0.70196700  0.14854300  0.99785200  1
  V  V4  1  0.30171300  0.35019000  0.99984900  1
  V  V5  1  0.02897200  0.98738400  0.66504300  1
  V  V6  1  0.96623900  0.01650500  0.33911200  1
  V  V7  1  0.36958600  0.31448900  0.33477500  1
  V  V8  1  0.63236100  0.68274600  0.66681100  1
  V  V9  1  0.36388800  0.81625100  0.33286200  1
  V  V10  1  0.96460400  0.51566600  0.33314200  1
  Ni  Ni11  1  0.62680600  0.18895300  0.66864100  1
  O  O12  1  0.39968900  0.64944800  0.79640000  1
  O  O13  1  0.60377700  0.35422600  0.90499700  1
  O  O14  1  0.93605200  0.68478800  0.87176300  1
  O  O15  1  0.05997000  0.30802400  0.43428400  1
  O  O16  1  0.73810000  0.97975700  0.77113800  1
  O  O17  1  0.04590100  0.28610100  0.76724900  1
  O  O18  1  0.63124400  0.38383800  0.56181800  1
  O  O19  1  0.29682800  0.04361500  0.89710000  1
  O  O20  1  0.26264100  0.01775200  0.53093300  1
  O  O21  1  0.73611100  0.97725400  0.44809900  1
  O  O22  1  0.71063200  0.95643500  0.11026800  1
  O  O23  1  0.36599000  0.61931100  0.43270700  1
  O  O24  1  0.96393900  0.71785300  0.23396500  1
  O  O25  1  0.25622500  0.01642900  0.23331500  1
  O  O26  1  0.93511600  0.68688800  0.56488100  1
  O  O27  1  0.39673900  0.65183200  0.10067500  1
  O  O28  1  0.07051700  0.31655900  0.13277900  1
  O  O29  1  0.60502300  0.35079400  0.20265700  1
