# generated using pymatgen
data_Fe2O3F
_symmetry_space_group_name_H-M   'P 1'
_cell_length_a   6.00185000
_cell_length_b   12.78353200
_cell_length_c   6.89943100
_cell_angle_alpha   90.00000000
_cell_angle_beta   90.00000000
_cell_angle_gamma   90.00000000
_symmetry_Int_Tables_number   1
_chemical_formula_structural   Fe2O3F
_chemical_formula_sum   'Fe16 O24 F8'
_cell_volume   529.35775015
_cell_formula_units_Z   8
loop_
 _symmetry_equiv_pos_site_id
 _symmetry_equiv_pos_as_xyz
  1  'x, y, z'
loop_
 _atom_site_type_symbol
 _atom_site_label
 _atom_site_symmetry_multiplicity
 _atom_site_fract_x
 _atom_site_fract_y
 _atom_site_fract_z
 _atom_site_occupancy
  Fe  Fe0  1  0.00000000  0.87511300  0.78533000  1
  Fe  Fe1  1  0.50000000  0.87511300  0.71467000  1
  Fe  Fe2  1  0.25000000  0.87501200  0.25000000  1
  Fe  Fe3  1  0.75000000  0.87501200  0.25000000  1
  Fe  Fe4  1  0.75000000  0.62498800  0.75000000  1
  Fe  Fe5  1  0.25000000  0.62498800  0.75000000  1
  Fe  Fe6  1  0.00000000  0.62488700  0.28533000  1
  Fe  Fe7  1  0.50000000  0.62488700  0.21467000  1
  Fe  Fe8  1  0.50000000  0.37511300  0.78533000  1
  Fe  Fe9  1  0.00000000  0.37511300  0.71467000  1
  Fe  Fe10  1  0.75000000  0.37501200  0.25000000  1
  Fe  Fe11  1  0.25000000  0.37501200  0.25000000  1
  Fe  Fe12  1  0.25000000  0.12498800  0.75000000  1
  Fe  Fe13  1  0.75000000  0.12498800  0.75000000  1
  Fe  Fe14  1  0.50000000  0.12488700  0.28533000  1
  Fe  Fe15  1  0.00000000  0.12488700  0.21467000  1
  O  O16  1  0.75000000  0.77869400  0.75000000  1
  O  O17  1  0.25000000  0.77869400  0.75000000  1
  O  O18  1  0.00000000  0.87586500  0.07194700  1
  O  O19  1  0.50000000  0.62413500  0.92805300  1
  O  O20  1  0.50000000  0.87586500  0.42805300  1
  O  O21  1  0.25000000  0.97136800  0.75000000  1
  O  O22  1  0.75000000  0.97136800  0.75000000  1
  O  O23  1  0.75000000  0.72130600  0.25000000  1
  O  O24  1  0.25000000  0.72130600  0.25000000  1
  O  O25  1  0.25000000  0.52863200  0.25000000  1
  O  O26  1  0.75000000  0.52863200  0.25000000  1
  O  O27  1  0.00000000  0.62413500  0.57194700  1
  O  O28  1  0.25000000  0.27869400  0.75000000  1
  O  O29  1  0.75000000  0.27869400  0.75000000  1
  O  O30  1  0.50000000  0.37586500  0.07194700  1
  O  O31  1  0.00000000  0.12413500  0.92805300  1
  O  O32  1  0.00000000  0.37586500  0.42805300  1
  O  O33  1  0.75000000  0.47136800  0.75000000  1
  O  O34  1  0.25000000  0.47136800  0.75000000  1
  O  O35  1  0.25000000  0.22130600  0.25000000  1
  O  O36  1  0.75000000  0.22130600  0.25000000  1
  O  O37  1  0.75000000  0.02863200  0.25000000  1
  O  O38  1  0.25000000  0.02863200  0.25000000  1
  O  O39  1  0.50000000  0.12413500  0.57194700  1
  F  F40  1  0.50000000  0.87411800  0.04872600  1
  F  F41  1  0.00000000  0.87411800  0.45127400  1
  F  F42  1  0.00000000  0.62588200  0.95127400  1
  F  F43  1  0.50000000  0.62588200  0.54872600  1
  F  F44  1  0.00000000  0.37411800  0.04872600  1
  F  F45  1  0.50000000  0.37411800  0.45127400  1
  F  F46  1  0.50000000  0.12588200  0.95127400  1
  F  F47  1  0.00000000  0.12588200  0.54872600  1
