# generated using pymatgen
data_MnTlH2OF4
_symmetry_space_group_name_H-M   'P 1'
_cell_length_a   13.84573200
_cell_length_b   6.72834600
_cell_length_c   10.75447843
_cell_angle_alpha   90.00000000
_cell_angle_beta   103.37236700
_cell_angle_gamma   90.00000000
_symmetry_Int_Tables_number   1
_chemical_formula_structural   MnTlH2OF4
_chemical_formula_sum   'Mn8 Tl8 H16 O8 F32'
_cell_volume   974.71181235
_cell_formula_units_Z   8
loop_
 _symmetry_equiv_pos_site_id
 _symmetry_equiv_pos_as_xyz
  1  'x, y, z'
loop_
 _atom_site_type_symbol
 _atom_site_label
 _atom_site_symmetry_multiplicity
 _atom_site_fract_x
 _atom_site_fract_y
 _atom_site_fract_z
 _atom_site_occupancy
  Mn  Mn0  1  0.75000000  0.75000000  0.50000000  1
  Mn  Mn1  1  0.75000000  0.25000000  0.00000000  1
  Mn  Mn2  1  0.00000000  0.75711000  0.75000000  1
  Mn  Mn3  1  0.00000000  0.24289000  0.25000000  1
  Mn  Mn4  1  0.25000000  0.25000000  0.50000000  1
  Mn  Mn5  1  0.25000000  0.75000000  0.00000000  1
  Mn  Mn6  1  0.50000000  0.25711000  0.75000000  1
  Mn  Mn7  1  0.50000000  0.74289000  0.25000000  1
  Tl  Tl8  1  0.91754150  0.26217850  0.56296400  1
  Tl  Tl9  1  0.58245850  0.76217850  0.93703600  1
  Tl  Tl10  1  0.58245850  0.23782150  0.43703600  1
  Tl  Tl11  1  0.91754150  0.73782150  0.06296400  1
  Tl  Tl12  1  0.41754150  0.76217850  0.56296400  1
  Tl  Tl13  1  0.08245850  0.26217850  0.93703600  1
  Tl  Tl14  1  0.08245850  0.73782150  0.43703600  1
  Tl  Tl15  1  0.41754150  0.23782150  0.06296400  1
  H  H16  1  0.68025250  0.59243150  0.70430600  1
  H  H17  1  0.81974750  0.09243150  0.79569400  1
  H  H18  1  0.81974750  0.90756850  0.29569400  1
  H  H19  1  0.68025250  0.40756850  0.20430600  1
  H  H20  1  0.79546150  0.62088750  0.75267500  1
  H  H21  1  0.70453850  0.12088750  0.74732500  1
  H  H22  1  0.70453850  0.87911250  0.24732500  1
  H  H23  1  0.79546150  0.37911250  0.25267500  1
  H  H24  1  0.18025250  0.09243150  0.70430600  1
  H  H25  1  0.31974750  0.59243150  0.79569400  1
  H  H26  1  0.31974750  0.40756850  0.29569400  1
  H  H27  1  0.18025250  0.90756850  0.20430600  1
  H  H28  1  0.29546150  0.12088750  0.75267500  1
  H  H29  1  0.20453850  0.62088750  0.74732500  1
  H  H30  1  0.20453850  0.37911250  0.24732500  1
  H  H31  1  0.29546150  0.87911250  0.25267500  1
  O  O32  1  0.73536050  0.68547150  0.70168500  1
  O  O33  1  0.76463950  0.18547150  0.79831500  1
  O  O34  1  0.76463950  0.81452850  0.29831500  1
  O  O35  1  0.73536050  0.31452850  0.20168500  1
  O  O36  1  0.23536050  0.18547150  0.70168500  1
  O  O37  1  0.26463950  0.68547150  0.79831500  1
  O  O38  1  0.26463950  0.31452850  0.29831500  1
  O  O39  1  0.23536050  0.81452850  0.20168500  1
  F  F40  1  0.89259350  0.74451150  0.56265200  1
  F  F41  1  0.60740650  0.24451150  0.93734800  1
  F  F42  1  0.60740650  0.75548850  0.43734800  1
  F  F43  1  0.89259350  0.25548850  0.06265200  1
  F  F44  1  0.75048600  0.02272600  0.53328600  1
  F  F45  1  0.74951400  0.52272600  0.96671400  1
  F  F46  1  0.74951400  0.47727400  0.46671400  1
  F  F47  1  0.75048600  0.97727400  0.03328600  1
  F  F48  1  0.92908500  0.95504900  0.81508300  1
  F  F49  1  0.57091500  0.45504900  0.68491700  1
  F  F50  1  0.57091500  0.54495100  0.18491700  1
  F  F51  1  0.92908500  0.04495100  0.31508300  1
  F  F52  1  0.92653900  0.55964000  0.81127500  1
  F  F53  1  0.57346100  0.05964000  0.68872500  1
  F  F54  1  0.57346100  0.94036000  0.18872500  1
  F  F55  1  0.92653900  0.44036000  0.31127500  1
  F  F56  1  0.39259350  0.24451150  0.56265200  1
  F  F57  1  0.10740650  0.74451150  0.93734800  1
  F  F58  1  0.10740650  0.25548850  0.43734800  1
  F  F59  1  0.39259350  0.75548850  0.06265200  1
  F  F60  1  0.25048600  0.52272600  0.53328600  1
  F  F61  1  0.24951400  0.02272600  0.96671400  1
  F  F62  1  0.24951400  0.97727400  0.46671400  1
  F  F63  1  0.25048600  0.47727400  0.03328600  1
  F  F64  1  0.42908500  0.45504900  0.81508300  1
  F  F65  1  0.07091500  0.95504900  0.68491700  1
  F  F66  1  0.07091500  0.04495100  0.18491700  1
  F  F67  1  0.42908500  0.54495100  0.31508300  1
  F  F68  1  0.42653900  0.05964000  0.81127500  1
  F  F69  1  0.07346100  0.55964000  0.68872500  1
  F  F70  1  0.07346100  0.44036000  0.18872500  1
  F  F71  1  0.42653900  0.94036000  0.31127500  1
