# generated using pymatgen
data_FeCo5O12
_symmetry_space_group_name_H-M   'P 1'
_cell_length_a   4.96223000
_cell_length_b   8.61647600
_cell_length_c   9.86889165
_cell_angle_alpha   90.00000000
_cell_angle_beta   90.02079600
_cell_angle_gamma   90.00000000
_symmetry_Int_Tables_number   1
_chemical_formula_structural   FeCo5O12
_chemical_formula_sum   'Fe2 Co10 O24'
_cell_volume   421.96353793
_cell_formula_units_Z   2
loop_
 _symmetry_equiv_pos_site_id
 _symmetry_equiv_pos_as_xyz
  1  'x, y, z'
loop_
 _atom_site_type_symbol
 _atom_site_label
 _atom_site_symmetry_multiplicity
 _atom_site_fract_x
 _atom_site_fract_y
 _atom_site_fract_z
 _atom_site_occupancy
  Fe  Fe0  1  0.00000000  0.00000000  0.00000000  1
  Fe  Fe1  1  0.50000000  0.50000000  0.00000000  1
  Co  Co2  1  0.50000000  0.33331900  0.50000000  1
  Co  Co3  1  0.00000000  0.33335100  0.00000000  1
  Co  Co4  1  0.50000000  0.16664900  0.00000000  1
  Co  Co5  1  0.00000000  0.16668100  0.50000000  1
  Co  Co6  1  0.50000000  0.00000000  0.50000000  1
  Co  Co7  1  0.00000000  0.83331900  0.50000000  1
  Co  Co8  1  0.50000000  0.83335100  0.00000000  1
  Co  Co9  1  0.00000000  0.66664900  0.00000000  1
  Co  Co10  1  0.50000000  0.66668100  0.50000000  1
  Co  Co11  1  0.00000000  0.50000000  0.50000000  1
  O  O12  1  0.67205450  0.32796250  0.90241700  1
  O  O13  1  0.32794550  0.32796250  0.09758300  1
  O  O14  1  0.66666050  0.16663750  0.59461000  1
  O  O15  1  0.16666050  0.33336250  0.59461000  1
  O  O16  1  0.33333950  0.16663750  0.40539000  1
  O  O17  1  0.83335000  0.00000000  0.40534300  1
  O  O18  1  0.83333950  0.33336250  0.40539000  1
  O  O19  1  0.17205450  0.17203750  0.90241700  1
  O  O20  1  0.65588300  0.00000000  0.90241900  1
  O  O21  1  0.82794550  0.17203750  0.09758300  1
  O  O22  1  0.34411700  0.00000000  0.09758100  1
  O  O23  1  0.16665000  0.00000000  0.59465700  1
  O  O24  1  0.17205450  0.82796250  0.90241700  1
  O  O25  1  0.82794550  0.82796250  0.09758300  1
  O  O26  1  0.16666050  0.66663750  0.59461000  1
  O  O27  1  0.66666050  0.83336250  0.59461000  1
  O  O28  1  0.83333950  0.66663750  0.40539000  1
  O  O29  1  0.33335000  0.50000000  0.40534300  1
  O  O30  1  0.33333950  0.83336250  0.40539000  1
  O  O31  1  0.67205450  0.67203750  0.90241700  1
  O  O32  1  0.15588300  0.50000000  0.90241900  1
  O  O33  1  0.32794550  0.67203750  0.09758300  1
  O  O34  1  0.84411700  0.50000000  0.09758100  1
  O  O35  1  0.66665000  0.50000000  0.59465700  1
