# generated using pymatgen
data_In3Cu3O8
_symmetry_space_group_name_H-M   'P 1'
_cell_length_a   6.02600578
_cell_length_b   10.25796604
_cell_length_c   6.19008858
_cell_angle_alpha   90.00000000
_cell_angle_beta   110.08595923
_cell_angle_gamma   90.00000000
_symmetry_Int_Tables_number   1
_chemical_formula_structural   In3Cu3O8
_chemical_formula_sum   'In6 Cu6 O16'
_cell_volume   359.36500158
_cell_formula_units_Z   2
loop_
 _symmetry_equiv_pos_site_id
 _symmetry_equiv_pos_as_xyz
  1  'x, y, z'
loop_
 _atom_site_type_symbol
 _atom_site_label
 _atom_site_symmetry_multiplicity
 _atom_site_fract_x
 _atom_site_fract_y
 _atom_site_fract_z
 _atom_site_occupancy
  In  In0  1  0.01518350  0.66670500  0.03990750  1
  In  In1  1  0.00000000  0.00000000  0.00000000  1
  In  In2  1  0.50000000  0.50000000  0.00000000  1
  In  In3  1  0.98481650  0.33329500  0.96009250  1
  In  In4  1  0.51518350  0.83329500  0.03990750  1
  In  In5  1  0.48481650  0.16670500  0.96009250  1
  Cu  Cu6  1  0.00000000  0.50000000  0.50000000  1
  Cu  Cu7  1  0.98447350  0.80745100  0.51532650  1
  Cu  Cu8  1  0.48447350  0.69254900  0.51532650  1
  Cu  Cu9  1  0.01552650  0.19254900  0.48467350  1
  Cu  Cu10  1  0.50000000  0.00000000  0.50000000  1
  Cu  Cu11  1  0.51552650  0.30745100  0.48467350  1
  O  O12  1  0.16140550  0.65511500  0.47915450  1
  O  O13  1  0.10886950  0.51006500  0.82658350  1
  O  O14  1  0.11600850  0.82866600  0.84248950  1
  O  O15  1  0.40934750  0.65960000  0.19496550  1
  O  O16  1  0.66140550  0.84488500  0.47915450  1
  O  O17  1  0.39113050  0.01006500  0.17341650  1
  O  O18  1  0.89113050  0.48993500  0.17341650  1
  O  O19  1  0.09065250  0.15960000  0.80503450  1
  O  O20  1  0.61600850  0.67133400  0.84248950  1
  O  O21  1  0.33859450  0.15511500  0.52084550  1
  O  O22  1  0.90934750  0.84040000  0.19496550  1
  O  O23  1  0.38399150  0.32866600  0.15751050  1
  O  O24  1  0.60886950  0.98993500  0.82658350  1
  O  O25  1  0.88399150  0.17133400  0.15751050  1
  O  O26  1  0.59065250  0.34040000  0.80503450  1
  O  O27  1  0.83859450  0.34488500  0.52084550  1
