# generated using pymatgen
data_FeOF
_symmetry_space_group_name_H-M   'P 1'
_cell_length_a   9.55447000
_cell_length_b   3.08760500
_cell_length_c   14.26229533
_cell_angle_alpha   90.00000000
_cell_angle_beta   90.31775723
_cell_angle_gamma   90.00000000
_symmetry_Int_Tables_number   1
_chemical_formula_structural   FeOF
_chemical_formula_sum   'Fe12 O12 F12'
_cell_volume   420.73736534
_cell_formula_units_Z   12
loop_
 _symmetry_equiv_pos_site_id
 _symmetry_equiv_pos_as_xyz
  1  'x, y, z'
loop_
 _atom_site_type_symbol
 _atom_site_label
 _atom_site_symmetry_multiplicity
 _atom_site_fract_x
 _atom_site_fract_y
 _atom_site_fract_z
 _atom_site_occupancy
  Fe  Fe0  1  0.00101900  0.00000000  0.98573300  1
  Fe  Fe1  1  0.49975100  0.00000000  0.99702800  1
  Fe  Fe2  1  0.78097000  0.50000000  0.82782900  1
  Fe  Fe3  1  0.25672800  0.50000000  0.84870500  1
  Fe  Fe4  1  0.99452700  0.00000000  0.65898700  1
  Fe  Fe5  1  0.50288000  0.00000000  0.65632700  1
  Fe  Fe6  1  0.25042500  0.50000000  0.52000200  1
  Fe  Fe7  1  0.74976000  0.50000000  0.51586800  1
  Fe  Fe8  1  0.00587100  0.00000000  0.32682400  1
  Fe  Fe9  1  0.50328400  0.00000000  0.32267500  1
  Fe  Fe10  1  0.72214800  0.50000000  0.15991300  1
  Fe  Fe11  1  0.24912500  0.50000000  0.18275300  1
  O  O12  1  0.10015600  0.50000000  0.93803200  1
  O  O13  1  0.84187000  0.00000000  0.90156300  1
  O  O14  1  0.35610300  0.00000000  0.90239000  1
  O  O15  1  0.90825000  0.50000000  0.72937500  1
  O  O16  1  0.59484600  0.50000000  0.60432800  1
  O  O17  1  0.09777700  0.50000000  0.60254800  1
  O  O18  1  0.84765000  0.00000000  0.55648000  1
  O  O19  1  0.34899300  0.00000000  0.56575100  1
  O  O20  1  0.59945200  0.50000000  0.26847500  1
  O  O21  1  0.08817400  0.50000000  0.26788600  1
  O  O22  1  0.34407000  0.00000000  0.23233300  1
  O  O23  1  0.64553600  0.00000000  0.09509300  1
  F  F24  1  0.59441700  0.50000000  0.93284000  1
  F  F25  1  0.64902600  0.00000000  0.77004900  1
  F  F26  1  0.16626800  0.00000000  0.77300900  1
  F  F27  1  0.40473800  0.50000000  0.73594500  1
  F  F28  1  0.64843200  0.00000000  0.43287900  1
  F  F29  1  0.14834000  0.00000000  0.43306500  1
  F  F30  1  0.89806900  0.50000000  0.39150700  1
  F  F31  1  0.40351400  0.50000000  0.39789300  1
  F  F32  1  0.84238200  0.00000000  0.22857900  1
  F  F33  1  0.15206500  0.00000000  0.10368800  1
  F  F34  1  0.90349400  0.50000000  0.06923100  1
  F  F35  1  0.39989500  0.50000000  0.06441600  1
