# generated using pymatgen
data_Li3Ti(CoO2)4
_symmetry_space_group_name_H-M   'P 1'
_cell_length_a   10.25112200
_cell_length_b   5.99391200
_cell_length_c   5.98857011
_cell_angle_alpha   90.00000000
_cell_angle_beta   125.18626316
_cell_angle_gamma   90.00000000
_symmetry_Int_Tables_number   1
_chemical_formula_structural   Li3Ti(CoO2)4
_chemical_formula_sum   'Li6 Ti2 Co8 O16'
_cell_volume   300.73045321
_cell_formula_units_Z   2
loop_
 _symmetry_equiv_pos_site_id
 _symmetry_equiv_pos_as_xyz
  1  'x, y, z'
loop_
 _atom_site_type_symbol
 _atom_site_label
 _atom_site_symmetry_multiplicity
 _atom_site_fract_x
 _atom_site_fract_y
 _atom_site_fract_z
 _atom_site_occupancy
  Li  Li0  1  0.25000000  0.75000000  0.50000000  1
  Li  Li1  1  0.00000000  0.00000000  0.50000000  1
  Li  Li2  1  0.25000000  0.25000000  0.50000000  1
  Li  Li3  1  0.75000000  0.25000000  0.50000000  1
  Li  Li4  1  0.50000000  0.50000000  0.50000000  1
  Li  Li5  1  0.75000000  0.75000000  0.50000000  1
  Ti  Ti6  1  0.00000000  0.50000000  0.00000000  1
  Ti  Ti7  1  0.50000000  0.00000000  0.00000000  1
  Co  Co8  1  0.50000000  0.00000000  0.50000000  1
  Co  Co9  1  0.00000000  0.00000000  0.00000000  1
  Co  Co10  1  0.25000000  0.75000000  0.00000000  1
  Co  Co11  1  0.75000000  0.75000000  0.00000000  1
  Co  Co12  1  0.00000000  0.50000000  0.50000000  1
  Co  Co13  1  0.50000000  0.50000000  0.00000000  1
  Co  Co14  1  0.75000000  0.25000000  0.00000000  1
  Co  Co15  1  0.25000000  0.25000000  0.00000000  1
  O  O16  1  0.26329500  0.00000000  0.77350200  1
  O  O17  1  0.49903600  0.76279000  0.76236100  1
  O  O18  1  0.49903600  0.23721000  0.76236100  1
  O  O19  1  0.75094200  0.00000000  0.76567100  1
  O  O20  1  0.74905800  0.50000000  0.23432900  1
  O  O21  1  0.00096400  0.26279000  0.23763900  1
  O  O22  1  0.00096400  0.73721000  0.23763900  1
  O  O23  1  0.23670500  0.50000000  0.22649800  1
  O  O24  1  0.76329500  0.50000000  0.77350200  1
  O  O25  1  0.99903600  0.26279000  0.76236100  1
  O  O26  1  0.99903600  0.73721000  0.76236100  1
  O  O27  1  0.25094200  0.50000000  0.76567100  1
  O  O28  1  0.24905800  0.00000000  0.23432900  1
  O  O29  1  0.50096400  0.76279000  0.23763900  1
  O  O30  1  0.50096400  0.23721000  0.23763900  1
  O  O31  1  0.73670500  0.00000000  0.22649800  1
