# generated using pymatgen
data_Li2VFeP2(O4F)2
_symmetry_space_group_name_H-M   'P 1'
_cell_length_a   5.22521755
_cell_length_b   5.37673272
_cell_length_c   7.40123700
_cell_angle_alpha   106.83918500
_cell_angle_beta   108.60449108
_cell_angle_gamma   97.86359387
_symmetry_Int_Tables_number   1
_chemical_formula_structural   Li2VFeP2(O4F)2
_chemical_formula_sum   'Li2 V1 Fe1 P2 O8 F2'
_cell_volume   182.49663500
_cell_formula_units_Z   1
loop_
 _symmetry_equiv_pos_site_id
 _symmetry_equiv_pos_as_xyz
  1  'x, y, z'
loop_
 _atom_site_type_symbol
 _atom_site_label
 _atom_site_symmetry_multiplicity
 _atom_site_fract_x
 _atom_site_fract_y
 _atom_site_fract_z
 _atom_site_occupancy
  Li  Li0  1  0.73002450  0.38378100  0.81262000  1
  Li  Li1  1  0.26997550  0.61621900  0.18738000  1
  V  V2  1  0.00000000  0.00000000  0.00000000  1
  Fe  Fe3  1  0.00000000  0.00000000  0.50000000  1
  P  P4  1  0.32202300  0.64151100  0.76174000  1
  P  P5  1  0.67797700  0.35848900  0.23826000  1
  O  O6  1  0.63127150  0.75455400  0.91414850  1
  O  O7  1  0.36872850  0.24544600  0.08585150  1
  O  O8  1  0.24922200  0.78842000  0.61025250  1
  O  O9  1  0.75077800  0.21158000  0.38974750  1
  O  O10  1  0.30803100  0.34181900  0.65764750  1
  O  O11  1  0.69196900  0.65818100  0.34235250  1
  O  O12  1  0.87085800  0.33396500  0.11191250  1
  O  O13  1  0.12914200  0.66603500  0.88808750  1
  F  F14  1  0.12896950  0.92769100  0.26479500  1
  F  F15  1  0.87103050  0.07230900  0.73520500  1
