# generated using pymatgen
data_Ti3V5O16
_symmetry_space_group_name_H-M   'P 1'
_cell_length_a   10.20056600
_cell_length_b   5.96262000
_cell_length_c   9.02114729
_cell_angle_alpha   90.00000000
_cell_angle_beta   90.11850216
_cell_angle_gamma   90.00000000
_symmetry_Int_Tables_number   1
_chemical_formula_structural   Ti3V5O16
_chemical_formula_sum   'Ti6 V10 O32'
_cell_volume   548.68393889
_cell_formula_units_Z   2
loop_
 _symmetry_equiv_pos_site_id
 _symmetry_equiv_pos_as_xyz
  1  'x, y, z'
loop_
 _atom_site_type_symbol
 _atom_site_label
 _atom_site_symmetry_multiplicity
 _atom_site_fract_x
 _atom_site_fract_y
 _atom_site_fract_z
 _atom_site_occupancy
  Ti  Ti0  1  0.58716300  0.74850000  0.78800100  1
  Ti  Ti1  1  0.58716300  0.25150000  0.78800100  1
  Ti  Ti2  1  0.16441100  0.00000000  0.29263200  1
  Ti  Ti3  1  0.08716300  0.24850000  0.78800100  1
  Ti  Ti4  1  0.08716300  0.75150000  0.78800100  1
  Ti  Ti5  1  0.66441100  0.50000000  0.29263200  1
  V  V6  1  0.66871000  0.00000000  0.51406600  1
  V  V7  1  0.83302700  0.00000000  0.79516600  1
  V  V8  1  0.33865500  0.00000000  0.01466100  1
  V  V9  1  0.41533450  0.24849650  0.28972100  1
  V  V10  1  0.41533450  0.75150350  0.28972100  1
  V  V11  1  0.16871000  0.50000000  0.51406600  1
  V  V12  1  0.33302700  0.50000000  0.79516600  1
  V  V13  1  0.83865500  0.50000000  0.01466100  1
  V  V14  1  0.91533450  0.74849650  0.28972100  1
  V  V15  1  0.91533450  0.25150350  0.28972100  1
  O  O16  1  0.58083600  0.75445700  0.39426400  1
  O  O17  1  0.52723000  0.00000000  0.65482200  1
  O  O18  1  0.66511900  0.00000000  0.90222800  1
  O  O19  1  0.00149500  0.00000000  0.68740200  1
  O  O20  1  0.99888500  0.00000000  0.18637800  1
  O  O21  1  0.58083600  0.24554300  0.39426400  1
  O  O22  1  0.74257700  0.79024800  0.66281000  1
  O  O23  1  0.74257700  0.20975200  0.66281000  1
  O  O24  1  0.17230400  0.00000000  0.89564900  1
  O  O25  1  0.82247800  0.00000000  0.39676700  1
  O  O26  1  0.26493200  0.78624300  0.16118500  1
  O  O27  1  0.26493200  0.21375700  0.16118500  1
  O  O28  1  0.33110700  0.00000000  0.40047900  1
  O  O29  1  0.41331900  0.75664600  0.89505000  1
  O  O30  1  0.47683200  0.00000000  0.16233200  1
  O  O31  1  0.41331900  0.24335400  0.89505000  1
  O  O32  1  0.08083600  0.25445700  0.39426400  1
  O  O33  1  0.02723000  0.50000000  0.65482200  1
  O  O34  1  0.16511900  0.50000000  0.90222800  1
  O  O35  1  0.50149500  0.50000000  0.68740200  1
  O  O36  1  0.49888500  0.50000000  0.18637800  1
  O  O37  1  0.08083600  0.74554300  0.39426400  1
  O  O38  1  0.24257700  0.29024800  0.66281000  1
  O  O39  1  0.24257700  0.70975200  0.66281000  1
  O  O40  1  0.67230400  0.50000000  0.89564900  1
  O  O41  1  0.32247800  0.50000000  0.39676700  1
  O  O42  1  0.76493200  0.28624300  0.16118500  1
  O  O43  1  0.76493200  0.71375700  0.16118500  1
  O  O44  1  0.83110700  0.50000000  0.40047900  1
  O  O45  1  0.91331900  0.25664600  0.89505000  1
  O  O46  1  0.97683200  0.50000000  0.16233200  1
  O  O47  1  0.91331900  0.74335400  0.89505000  1
