# generated using pymatgen
data_V3(O2F)2
_symmetry_space_group_name_H-M   'P 1'
_cell_length_a   5.61451853
_cell_length_b   4.66961111
_cell_length_c   7.71636533
_cell_angle_alpha   90.00000000
_cell_angle_beta   93.46259146
_cell_angle_gamma   90.00000000
_symmetry_Int_Tables_number   1
_chemical_formula_structural   V3(O2F)2
_chemical_formula_sum   'V6 O8 F4'
_cell_volume   201.93540111
_cell_formula_units_Z   2
loop_
 _symmetry_equiv_pos_site_id
 _symmetry_equiv_pos_as_xyz
  1  'x, y, z'
loop_
 _atom_site_type_symbol
 _atom_site_label
 _atom_site_symmetry_multiplicity
 _atom_site_fract_x
 _atom_site_fract_y
 _atom_site_fract_z
 _atom_site_occupancy
  V  V0  1  0.76460200  0.98691700  0.00494450  1
  V  V1  1  0.41540700  0.02199300  0.65200650  1
  V  V2  1  0.89364500  0.47754600  0.69061750  1
  V  V3  1  0.23539800  0.48691700  0.99505550  1
  V  V4  1  0.58459300  0.52199300  0.34799350  1
  V  V5  1  0.10635500  0.97754600  0.30938250  1
  O  O6  1  0.71194800  0.20492800  0.77282950  1
  O  O7  1  0.28805200  0.70492800  0.22717050  1
  O  O8  1  0.37661100  0.19617700  0.42320150  1
  O  O9  1  0.62338900  0.69617700  0.57679850  1
  O  O10  1  0.05192100  0.19795500  0.10688150  1
  O  O11  1  0.94807900  0.69795500  0.89311850  1
  O  O12  1  0.20540500  0.30824000  0.76313450  1
  O  O13  1  0.79459500  0.80824000  0.23686550  1
  F  F14  1  0.89092200  0.29529300  0.44416950  1
  F  F15  1  0.10907800  0.79529300  0.55583050  1
  F  F16  1  0.55780100  0.31131400  0.10163250  1
  F  F17  1  0.44219900  0.81131400  0.89836750  1
