# generated using pymatgen
data_LiMnSbO4
_symmetry_space_group_name_H-M   'P 1'
_cell_length_a   6.25912800
_cell_length_b   6.25912800
_cell_length_c   8.71823900
_cell_angle_alpha   90.00000000
_cell_angle_beta   90.00000000
_cell_angle_gamma   90.00000000
_symmetry_Int_Tables_number   1
_chemical_formula_structural   LiMnSbO4
_chemical_formula_sum   'Li4 Mn4 Sb4 O16'
_cell_volume   341.55168858
_cell_formula_units_Z   4
loop_
 _symmetry_equiv_pos_site_id
 _symmetry_equiv_pos_as_xyz
  1  'x, y, z'
loop_
 _atom_site_type_symbol
 _atom_site_label
 _atom_site_symmetry_multiplicity
 _atom_site_fract_x
 _atom_site_fract_y
 _atom_site_fract_z
 _atom_site_occupancy
  Li  Li0  1  0.50000000  0.71126400  0.00000000  1
  Li  Li1  1  0.50000000  0.28873600  0.50000000  1
  Li  Li2  1  0.71126400  0.50000000  0.25000000  1
  Li  Li3  1  0.28873600  0.50000000  0.75000000  1
  Mn  Mn4  1  0.74747900  0.25252100  0.87500000  1
  Mn  Mn5  1  0.25252100  0.74747900  0.37500000  1
  Mn  Mn6  1  0.74747900  0.74747900  0.62500000  1
  Mn  Mn7  1  0.25252100  0.25252100  0.12500000  1
  Sb  Sb8  1  0.73455100  0.00000000  0.25000000  1
  Sb  Sb9  1  0.00000000  0.73455100  0.00000000  1
  Sb  Sb10  1  0.00000000  0.26544900  0.50000000  1
  Sb  Sb11  1  0.26544900  0.00000000  0.75000000  1
  O  O12  1  0.53055300  0.76499900  0.25271900  1
  O  O13  1  0.53055300  0.23500100  0.24728100  1
  O  O14  1  0.76499900  0.53055300  0.99728100  1
  O  O15  1  0.76499900  0.46944700  0.50271900  1
  O  O16  1  0.23500100  0.53055300  0.00271900  1
  O  O17  1  0.23500100  0.46944700  0.49728100  1
  O  O18  1  0.46944700  0.76499900  0.74728100  1
  O  O19  1  0.46944700  0.23500100  0.75271900  1
  O  O20  1  0.77284700  0.97943800  0.01757200  1
  O  O21  1  0.77284700  0.02056200  0.48242800  1
  O  O22  1  0.97943800  0.77284700  0.23242800  1
  O  O23  1  0.97943800  0.22715300  0.26757200  1
  O  O24  1  0.02056200  0.77284700  0.76757200  1
  O  O25  1  0.02056200  0.22715300  0.73242800  1
  O  O26  1  0.22715300  0.02056200  0.51757200  1
  O  O27  1  0.22715300  0.97943800  0.98242800  1
