# generated using pymatgen
data_P5(WO6)4
_symmetry_space_group_name_H-M   'P 1'
_cell_length_a   17.20380000
_cell_length_b   8.51796600
_cell_length_c   15.42235003
_cell_angle_alpha   90.00000000
_cell_angle_beta   119.18172475
_cell_angle_gamma   90.00000000
_symmetry_Int_Tables_number   1
_chemical_formula_structural   P5(WO6)4
_chemical_formula_sum   'P20 W16 O96'
_cell_volume   1973.16639317
_cell_formula_units_Z   4
loop_
 _symmetry_equiv_pos_site_id
 _symmetry_equiv_pos_as_xyz
  1  'x, y, z'
loop_
 _atom_site_type_symbol
 _atom_site_label
 _atom_site_symmetry_multiplicity
 _atom_site_fract_x
 _atom_site_fract_y
 _atom_site_fract_z
 _atom_site_occupancy
  P  P0  1  0.50992900  0.67335100  0.89546300  1
  P  P1  1  0.48994350  0.67059950  0.60265500  1
  P  P2  1  0.24444250  0.50859950  0.03987000  1
  P  P3  1  0.74444250  0.99140050  0.53987000  1
  P  P4  1  0.49959650  0.90180650  0.24963500  1
  P  P5  1  0.49959650  0.09819350  0.74963500  1
  P  P6  1  0.25545800  0.00540800  0.46014900  1
  P  P7  1  0.75545800  0.49459200  0.96014900  1
  P  P8  1  0.48994350  0.32940050  0.10265500  1
  P  P9  1  0.50992900  0.32664900  0.39546300  1
  P  P10  1  0.00992900  0.17335100  0.89546300  1
  P  P11  1  0.98994350  0.17059950  0.60265500  1
  P  P12  1  0.74444250  0.00859950  0.03987000  1
  P  P13  1  0.24444250  0.49140050  0.53987000  1
  P  P14  1  0.99959650  0.40180650  0.24963500  1
  P  P15  1  0.99959650  0.59819350  0.74963500  1
  P  P16  1  0.75545800  0.50540800  0.46014900  1
  P  P17  1  0.25545800  0.99459200  0.96014900  1
  P  P18  1  0.98994350  0.82940050  0.10265500  1
  P  P19  1  0.00992900  0.82664900  0.39546300  1
  W  W20  1  0.83650100  0.30942800  0.68115100  1
  W  W21  1  0.66362350  0.81439750  0.81803200  1
  W  W22  1  0.59549300  0.30401200  0.97928000  1
  W  W23  1  0.40254450  0.30439150  0.51775200  1
  W  W24  1  0.40254450  0.69560850  0.01775200  1
  W  W25  1  0.59549300  0.69598800  0.47928000  1
  W  W26  1  0.33650100  0.19057200  0.18115100  1
  W  W27  1  0.16362350  0.68560250  0.31803200  1
  W  W28  1  0.33650100  0.80942800  0.68115100  1
  W  W29  1  0.16362350  0.31439750  0.81803200  1
  W  W30  1  0.09549300  0.80401200  0.97928000  1
  W  W31  1  0.90254450  0.80439150  0.51775200  1
  W  W32  1  0.90254450  0.19560850  0.01775200  1
  W  W33  1  0.09549300  0.19598800  0.47928000  1
  W  W34  1  0.83650100  0.69057200  0.18115100  1
  W  W35  1  0.66362350  0.18560250  0.31803200  1
  O  O36  1  0.58256400  0.99507100  0.77279600  1
  O  O37  1  0.49571400  0.75862500  0.97425000  1
  O  O38  1  0.50565450  0.75228550  0.52007200  1
  O  O39  1  0.58770650  0.74333650  0.88896200  1
  O  O40  1  0.41062700  0.74435000  0.60422900  1
  O  O41  1  0.57621850  0.69591450  0.70404700  1
  O  O42  1  0.42374150  0.68245250  0.79132400  1
  O  O43  1  0.22872650  0.62795350  0.26710600  1
  O  O44  1  0.83032300  0.11810800  0.90161900  1
  O  O45  1  0.76408850  0.11740250  0.62067900  1
  O  O46  1  0.23317400  0.57988700  0.44656800  1
  O  O47  1  0.15575050  0.59309550  0.01372200  1
  O  O48  1  0.52441950  0.49334050  0.91712600  1
  O  O49  1  0.48258250  0.49429250  0.58485400  1
  O  O50  1  0.58256400  0.00492900  0.27279600  1
  O  O51  1  0.65575050  0.90690450  0.51372200  1
  O  O52  1  0.73317400  0.92011300  0.94656800  1
  O  O53  1  0.26408850  0.38259750  0.12067900  1
  O  O54  1  0.33032300  0.38189200  0.40161900  1
  O  O55  1  0.72872650  0.87204650  0.76710600  1
  O  O56  1  0.32007150  0.37303650  0.57603200  1
  O  O57  1  0.67675000  0.37628000  0.92634700  1
  O  O58  1  0.47827500  0.80441500  0.15883700  1
  O  O59  1  0.51933100  0.80284400  0.34087900  1
  O  O60  1  0.51933100  0.19715600  0.84087900  1
  O  O61  1  0.47827500  0.19558500  0.65883700  1
  O  O62  1  0.67675000  0.62372000  0.42634700  1
  O  O63  1  0.32007150  0.62696350  0.07603200  1
  O  O64  1  0.27336250  0.13007850  0.23375100  1
  O  O65  1  0.66738450  0.61891550  0.59468800  1
  O  O66  1  0.73096300  0.61866800  0.87701400  1
  O  O67  1  0.26527750  0.08156650  0.05358700  1
  O  O68  1  0.34182000  0.08377700  0.48104900  1
  O  O69  1  0.48258250  0.50570750  0.08485400  1
  O  O70  1  0.52441950  0.50665950  0.41712600  1
  O  O71  1  0.42035650  0.98694550  0.72992900  1
  O  O72  1  0.84182000  0.41622300  0.98104900  1
  O  O73  1  0.76527750  0.41843350  0.55358700  1
  O  O74  1  0.23096300  0.88133200  0.37701400  1
  O  O75  1  0.16738450  0.88108450  0.09468800  1
  O  O76  1  0.77336250  0.36992150  0.73375100  1
  O  O77  1  0.42374150  0.31754750  0.29132400  1
  O  O78  1  0.57621850  0.30408550  0.20404700  1
  O  O79  1  0.41062700  0.25565000  0.10422900  1
  O  O80  1  0.58770650  0.25666350  0.38896200  1
  O  O81  1  0.50565450  0.24771450  0.02007200  1
  O  O82  1  0.49571400  0.24137500  0.47425000  1
  O  O83  1  0.42035650  0.01305450  0.22992900  1
  O  O84  1  0.08256400  0.49507100  0.77279600  1
  O  O85  1  0.99571400  0.25862500  0.97425000  1
  O  O86  1  0.00565450  0.25228550  0.52007200  1
  O  O87  1  0.08770650  0.24333650  0.88896200  1
  O  O88  1  0.91062700  0.24435000  0.60422900  1
  O  O89  1  0.07621850  0.19591450  0.70404700  1
  O  O90  1  0.92374150  0.18245250  0.79132400  1
  O  O91  1  0.72872650  0.12795350  0.26710600  1
  O  O92  1  0.33032300  0.61810800  0.90161900  1
  O  O93  1  0.26408850  0.61740250  0.62067900  1
  O  O94  1  0.73317400  0.07988700  0.44656800  1
  O  O95  1  0.65575050  0.09309550  0.01372200  1
  O  O96  1  0.02441950  0.99334050  0.91712600  1
  O  O97  1  0.98258250  0.99429250  0.58485400  1
  O  O98  1  0.08256400  0.50492900  0.27279600  1
  O  O99  1  0.15575050  0.40690450  0.51372200  1
  O  O100  1  0.23317400  0.42011300  0.94656800  1
  O  O101  1  0.76408850  0.88259750  0.12067900  1
  O  O102  1  0.83032300  0.88189200  0.40161900  1
  O  O103  1  0.22872650  0.37204650  0.76710600  1
  O  O104  1  0.82007150  0.87303650  0.57603200  1
  O  O105  1  0.17675000  0.87628000  0.92634700  1
  O  O106  1  0.97827500  0.30441500  0.15883700  1
  O  O107  1  0.01933100  0.30284400  0.34087900  1
  O  O108  1  0.01933100  0.69715600  0.84087900  1
  O  O109  1  0.97827500  0.69558500  0.65883700  1
  O  O110  1  0.17675000  0.12372000  0.42634700  1
  O  O111  1  0.82007150  0.12696350  0.07603200  1
  O  O112  1  0.77336250  0.63007850  0.23375100  1
  O  O113  1  0.16738450  0.11891550  0.59468800  1
  O  O114  1  0.23096300  0.11866800  0.87701400  1
  O  O115  1  0.76527750  0.58156650  0.05358700  1
  O  O116  1  0.84182000  0.58377700  0.48104900  1
  O  O117  1  0.98258250  0.00570750  0.08485400  1
  O  O118  1  0.02441950  0.00665950  0.41712600  1
  O  O119  1  0.92035650  0.48694550  0.72992900  1
  O  O120  1  0.34182000  0.91622300  0.98104900  1
  O  O121  1  0.26527750  0.91843350  0.55358700  1
  O  O122  1  0.73096300  0.38133200  0.37701400  1
  O  O123  1  0.66738450  0.38108450  0.09468800  1
  O  O124  1  0.27336250  0.86992150  0.73375100  1
  O  O125  1  0.92374150  0.81754750  0.29132400  1
  O  O126  1  0.07621850  0.80408550  0.20404700  1
  O  O127  1  0.91062700  0.75565000  0.10422900  1
  O  O128  1  0.08770650  0.75666350  0.38896200  1
  O  O129  1  0.00565450  0.74771450  0.02007200  1
  O  O130  1  0.99571400  0.74137500  0.47425000  1
  O  O131  1  0.92035650  0.51305450  0.22992900  1
