# generated using pymatgen
data_Li2MnO2F
_symmetry_space_group_name_H-M   'P 1'
_cell_length_a   3.91538600
_cell_length_b   15.15531806
_cell_length_c   3.91778602
_cell_angle_alpha   90.00000000
_cell_angle_beta   90.00000000
_cell_angle_gamma   90.00000000
_symmetry_Int_Tables_number   1
_chemical_formula_structural   Li2MnO2F
_chemical_formula_sum   'Li8 Mn4 O8 F4'
_cell_volume   232.47719199
_cell_formula_units_Z   4
loop_
 _symmetry_equiv_pos_site_id
 _symmetry_equiv_pos_as_xyz
  1  'x, y, z'
loop_
 _atom_site_type_symbol
 _atom_site_label
 _atom_site_symmetry_multiplicity
 _atom_site_fract_x
 _atom_site_fract_y
 _atom_site_fract_z
 _atom_site_occupancy
  Li  Li0  1  0.00000000  0.58025350  0.25000000  1
  Li  Li1  1  0.00000000  0.41974650  0.75000000  1
  Li  Li2  1  0.00000000  0.26978150  0.25000000  1
  Li  Li3  1  0.50000000  0.23021850  0.75000000  1
  Li  Li4  1  0.50000000  0.08025350  0.25000000  1
  Li  Li5  1  0.50000000  0.91974650  0.75000000  1
  Li  Li6  1  0.50000000  0.76978150  0.25000000  1
  Li  Li7  1  0.00000000  0.73021850  0.75000000  1
  Mn  Mn8  1  0.50000000  0.58085000  0.75000000  1
  Mn  Mn9  1  0.50000000  0.41915000  0.25000000  1
  Mn  Mn10  1  0.00000000  0.08085000  0.75000000  1
  Mn  Mn11  1  0.00000000  0.91915000  0.25000000  1
  O  O12  1  0.50000000  0.09678900  0.75000000  1
  O  O13  1  0.00000000  0.40321100  0.25000000  1
  O  O14  1  0.50000000  0.56704500  0.25000000  1
  O  O15  1  0.50000000  0.43295500  0.75000000  1
  O  O16  1  0.00000000  0.59678900  0.75000000  1
  O  O17  1  0.50000000  0.90321100  0.25000000  1
  O  O18  1  0.00000000  0.06704500  0.25000000  1
  O  O19  1  0.00000000  0.93295500  0.75000000  1
  F  F20  1  0.50000000  0.26354300  0.25000000  1
  F  F21  1  0.00000000  0.23645700  0.75000000  1
  F  F22  1  0.00000000  0.76354300  0.25000000  1
  F  F23  1  0.50000000  0.73645700  0.75000000  1
