# generated using pymatgen
data_Li2MnOF3
_symmetry_space_group_name_H-M   'P 1'
_cell_length_a   10.22587316
_cell_length_b   6.04209451
_cell_length_c   5.94913557
_cell_angle_alpha   90.00000000
_cell_angle_beta   124.19685131
_cell_angle_gamma   90.00000000
_symmetry_Int_Tables_number   1
_chemical_formula_structural   Li2MnOF3
_chemical_formula_sum   'Li8 Mn4 O4 F12'
_cell_volume   304.02256666
_cell_formula_units_Z   4
loop_
 _symmetry_equiv_pos_site_id
 _symmetry_equiv_pos_as_xyz
  1  'x, y, z'
loop_
 _atom_site_type_symbol
 _atom_site_label
 _atom_site_symmetry_multiplicity
 _atom_site_fract_x
 _atom_site_fract_y
 _atom_site_fract_z
 _atom_site_occupancy
  Li  Li0  1  0.00000000  0.50000000  0.00000000  1
  Li  Li1  1  0.00000000  0.50000000  0.50000000  1
  Li  Li2  1  0.62371900  0.50000000  0.90661625  1
  Li  Li3  1  0.37628100  0.50000000  0.09338375  1
  Li  Li4  1  0.50000000  0.00000000  0.00000000  1
  Li  Li5  1  0.50000000  0.00000000  0.50000000  1
  Li  Li6  1  0.12371900  0.00000000  0.90661625  1
  Li  Li7  1  0.87628100  0.00000000  0.09338375  1
  Mn  Mn8  1  0.25000000  0.25000000  0.50000000  1
  Mn  Mn9  1  0.75000000  0.25000000  0.50000000  1
  Mn  Mn10  1  0.75000000  0.75000000  0.50000000  1
  Mn  Mn11  1  0.25000000  0.75000000  0.50000000  1
  O  O12  1  0.24529650  0.50000000  0.68878525  1
  O  O13  1  0.75470350  0.50000000  0.31121475  1
  O  O14  1  0.74529650  0.00000000  0.68878525  1
  O  O15  1  0.25470350  0.00000000  0.31121475  1
  F  F16  1  0.24127350  0.50000000  0.22834575  1
  F  F17  1  0.75872650  0.50000000  0.77165425  1
  F  F18  1  0.01407250  0.73809850  0.26035425  1
  F  F19  1  0.01407250  0.26190150  0.26035425  1
  F  F20  1  0.98592750  0.73809850  0.73964575  1
  F  F21  1  0.98592750  0.26190150  0.73964575  1
  F  F22  1  0.74127350  0.00000000  0.22834575  1
  F  F23  1  0.25872650  0.00000000  0.77165425  1
  F  F24  1  0.51407250  0.23809850  0.26035425  1
  F  F25  1  0.51407250  0.76190150  0.26035425  1
  F  F26  1  0.48592750  0.23809850  0.73964575  1
  F  F27  1  0.48592750  0.76190150  0.73964575  1
