# generated using pymatgen
data_Li4Ti5Nb3O16
_symmetry_space_group_name_H-M   'P 1'
_cell_length_a   10.36993000
_cell_length_b   5.96353200
_cell_length_c   9.87279881
_cell_angle_alpha   90.00000000
_cell_angle_beta   90.08862953
_cell_angle_gamma   90.00000000
_symmetry_Int_Tables_number   1
_chemical_formula_structural   Li4Ti5Nb3O16
_chemical_formula_sum   'Li8 Ti10 Nb6 O32'
_cell_volume   610.54706271
_cell_formula_units_Z   2
loop_
 _symmetry_equiv_pos_site_id
 _symmetry_equiv_pos_as_xyz
  1  'x, y, z'
loop_
 _atom_site_type_symbol
 _atom_site_label
 _atom_site_symmetry_multiplicity
 _atom_site_fract_x
 _atom_site_fract_y
 _atom_site_fract_z
 _atom_site_occupancy
  Li  Li0  1  0.66809300  0.00000000  0.90078000  1
  Li  Li1  1  0.50656300  0.50000000  0.99077300  1
  Li  Li2  1  0.50613500  0.50000000  0.49495700  1
  Li  Li3  1  0.83312900  0.50000000  0.38971200  1
  Li  Li4  1  0.16809300  0.50000000  0.90078000  1
  Li  Li5  1  0.00656300  0.00000000  0.99077300  1
  Li  Li6  1  0.00613500  0.00000000  0.49495700  1
  Li  Li7  1  0.33312900  0.00000000  0.38971200  1
  Ti  Ti8  1  0.58599950  0.24343850  0.21669400  1
  Ti  Ti9  1  0.66963100  0.00000000  0.49436300  1
  Ti  Ti10  1  0.58599950  0.75656150  0.21669400  1
  Ti  Ti11  1  0.67592900  0.50000000  0.71954000  1
  Ti  Ti12  1  0.83164900  0.50000000  0.99258000  1
  Ti  Ti13  1  0.08599950  0.74343850  0.21669400  1
  Ti  Ti14  1  0.16963100  0.50000000  0.49436300  1
  Ti  Ti15  1  0.08599950  0.25656150  0.21669400  1
  Ti  Ti16  1  0.17592900  0.00000000  0.71954000  1
  Ti  Ti17  1  0.33164900  0.00000000  0.99258000  1
  Nb  Nb18  1  0.82820900  0.00000000  0.21341200  1
  Nb  Nb19  1  0.91376700  0.71987300  0.71303900  1
  Nb  Nb20  1  0.91376700  0.28012700  0.71303900  1
  Nb  Nb21  1  0.32820900  0.50000000  0.21341200  1
  Nb  Nb22  1  0.41376700  0.21987300  0.71303900  1
  Nb  Nb23  1  0.41376700  0.78012700  0.71303900  1
  O  O24  1  0.58491600  0.24677200  0.59506500  1
  O  O25  1  0.52071300  0.00000000  0.33545200  1
  O  O26  1  0.65993900  0.00000000  0.10169500  1
  O  O27  1  0.50464200  0.50000000  0.31301000  1
  O  O28  1  0.50418400  0.50000000  0.80897200  1
  O  O29  1  0.58491600  0.75322800  0.59506500  1
  O  O30  1  0.73750550  0.22174950  0.34299600  1
  O  O31  1  0.73750550  0.77825050  0.34299600  1
  O  O32  1  0.66685800  0.50000000  0.10097000  1
  O  O33  1  0.83130200  0.00000000  0.59014100  1
  O  O34  1  0.75776150  0.72285750  0.84605100  1
  O  O35  1  0.75776150  0.27714250  0.84605100  1
  O  O36  1  0.81580400  0.50000000  0.57952200  1
  O  O37  1  0.91578200  0.75030300  0.09733200  1
  O  O38  1  0.98490900  0.50000000  0.85962600  1
  O  O39  1  0.91578200  0.24969700  0.09733200  1
  O  O40  1  0.08491600  0.74677200  0.59506500  1
  O  O41  1  0.02071300  0.50000000  0.33545200  1
  O  O42  1  0.15993900  0.50000000  0.10169500  1
  O  O43  1  0.00464200  0.00000000  0.31301000  1
  O  O44  1  0.00418400  0.00000000  0.80897200  1
  O  O45  1  0.08491600  0.25322800  0.59506500  1
  O  O46  1  0.23750550  0.72174950  0.34299600  1
  O  O47  1  0.23750550  0.27825050  0.34299600  1
  O  O48  1  0.16685800  0.00000000  0.10097000  1
  O  O49  1  0.33130200  0.50000000  0.59014100  1
  O  O50  1  0.25776150  0.22285750  0.84605100  1
  O  O51  1  0.25776150  0.77714250  0.84605100  1
  O  O52  1  0.31580400  0.00000000  0.57952200  1
  O  O53  1  0.41578200  0.25030300  0.09733200  1
  O  O54  1  0.48490900  0.00000000  0.85962600  1
  O  O55  1  0.41578200  0.74969700  0.09733200  1
