# generated using pymatgen
data_Fe2H4O2F5
_symmetry_space_group_name_H-M   'P 1'
_cell_length_a   6.57882000
_cell_length_b   7.61307200
_cell_length_c   11.17074600
_cell_angle_alpha   90.00000000
_cell_angle_beta   90.00000000
_cell_angle_gamma   90.00000000
_symmetry_Int_Tables_number   1
_chemical_formula_structural   Fe2H4O2F5
_chemical_formula_sum   'Fe8 H16 O8 F20'
_cell_volume   559.48715228
_cell_formula_units_Z   4
loop_
 _symmetry_equiv_pos_site_id
 _symmetry_equiv_pos_as_xyz
  1  'x, y, z'
loop_
 _atom_site_type_symbol
 _atom_site_label
 _atom_site_symmetry_multiplicity
 _atom_site_fract_x
 _atom_site_fract_y
 _atom_site_fract_z
 _atom_site_occupancy
  Fe  Fe0  1  0.50000000  0.50000000  0.00000000  1
  Fe  Fe1  1  0.00000000  0.00000000  0.00000000  1
  Fe  Fe2  1  0.25000000  0.25000000  0.25000000  1
  Fe  Fe3  1  0.75000000  0.25000000  0.75000000  1
  Fe  Fe4  1  0.00000000  0.00000000  0.50000000  1
  Fe  Fe5  1  0.50000000  0.50000000  0.50000000  1
  Fe  Fe6  1  0.75000000  0.75000000  0.75000000  1
  Fe  Fe7  1  0.25000000  0.75000000  0.25000000  1
  H  H8  1  0.87920800  0.39631000  0.08856500  1
  H  H9  1  0.12079200  0.39631000  0.91143500  1
  H  H10  1  0.37920800  0.10369000  0.91143500  1
  H  H11  1  0.62079200  0.10369000  0.08856500  1
  H  H12  1  0.37920800  0.89631000  0.91143500  1
  H  H13  1  0.62079200  0.89631000  0.08856500  1
  H  H14  1  0.87920800  0.60369000  0.08856500  1
  H  H15  1  0.12079200  0.60369000  0.91143500  1
  H  H16  1  0.37920800  0.89631000  0.58856500  1
  H  H17  1  0.62079200  0.89631000  0.41143500  1
  H  H18  1  0.87920800  0.60369000  0.41143500  1
  H  H19  1  0.12079200  0.60369000  0.58856500  1
  H  H20  1  0.87920800  0.39631000  0.41143500  1
  H  H21  1  0.12079200  0.39631000  0.58856500  1
  H  H22  1  0.37920800  0.10369000  0.58856500  1
  H  H23  1  0.62079200  0.10369000  0.41143500  1
  O  O24  1  0.20062950  0.50000000  0.93579250  1
  O  O25  1  0.79937050  0.50000000  0.43579250  1
  O  O26  1  0.20062950  0.50000000  0.56420750  1
  O  O27  1  0.79937050  0.50000000  0.06420750  1
  O  O28  1  0.70062950  0.00000000  0.43579250  1
  O  O29  1  0.29937050  0.00000000  0.93579250  1
  O  O30  1  0.70062950  0.00000000  0.06420750  1
  O  O31  1  0.29937050  0.00000000  0.56420750  1
  F  F32  1  0.45235800  0.29134800  0.12527900  1
  F  F33  1  0.54764200  0.29134800  0.87472100  1
  F  F34  1  0.04764200  0.20865200  0.12527900  1
  F  F35  1  0.95235800  0.20865200  0.87472100  1
  F  F36  1  0.83466900  0.50000000  0.75000000  1
  F  F37  1  0.16533100  0.50000000  0.25000000  1
  F  F38  1  0.04764200  0.79134800  0.12527900  1
  F  F39  1  0.95235800  0.79134800  0.87472100  1
  F  F40  1  0.45235800  0.70865200  0.12527900  1
  F  F41  1  0.54764200  0.70865200  0.87472100  1
  F  F42  1  0.95235800  0.79134800  0.62527900  1
  F  F43  1  0.04764200  0.79134800  0.37472100  1
  F  F44  1  0.54764200  0.70865200  0.62527900  1
  F  F45  1  0.45235800  0.70865200  0.37472100  1
  F  F46  1  0.33466900  0.00000000  0.25000000  1
  F  F47  1  0.66533100  0.00000000  0.75000000  1
  F  F48  1  0.54764200  0.29134800  0.62527900  1
  F  F49  1  0.45235800  0.29134800  0.37472100  1
  F  F50  1  0.95235800  0.20865200  0.62527900  1
  F  F51  1  0.04764200  0.20865200  0.37472100  1
