# generated using pymatgen
data_TiFe3Co2(PO4)6
_symmetry_space_group_name_H-M   'P 1'
_cell_length_a   8.64324439
_cell_length_b   8.64324439
_cell_length_c   20.45486778
_cell_angle_alpha   90.00000000
_cell_angle_beta   90.00000000
_cell_angle_gamma   120.00000000
_symmetry_Int_Tables_number   1
_chemical_formula_structural   TiFe3Co2(PO4)6
_chemical_formula_sum   'Ti3 Fe9 Co6 P18 O72'
_cell_volume   1323.36880826
_cell_formula_units_Z   3
loop_
 _symmetry_equiv_pos_site_id
 _symmetry_equiv_pos_as_xyz
  1  'x, y, z'
loop_
 _atom_site_type_symbol
 _atom_site_label
 _atom_site_symmetry_multiplicity
 _atom_site_fract_x
 _atom_site_fract_y
 _atom_site_fract_z
 _atom_site_occupancy
  Ti  Ti0  1  0.33333333  0.66666667  0.52220667  1
  Ti  Ti1  1  0.00000000  0.00000000  0.85554000  1
  Ti  Ti2  1  0.66666667  0.33333333  0.18887333  1
  Fe  Fe3  1  0.33333333  0.66666667  0.02203167  1
  Fe  Fe4  1  0.33333333  0.66666667  0.81228667  1
  Fe  Fe5  1  0.33333333  0.66666667  0.31083367  1
  Fe  Fe6  1  0.00000000  0.00000000  0.35536500  1
  Fe  Fe7  1  0.00000000  0.00000000  0.14562000  1
  Fe  Fe8  1  0.00000000  0.00000000  0.64416700  1
  Fe  Fe9  1  0.66666667  0.33333333  0.68869833  1
  Fe  Fe10  1  0.66666667  0.33333333  0.47895333  1
  Fe  Fe11  1  0.66666667  0.33333333  0.97750033  1
  Co  Co12  1  0.33333333  0.66666667  0.66875367  1
  Co  Co13  1  0.33333333  0.66666667  0.16752867  1
  Co  Co14  1  0.00000000  0.00000000  0.00208700  1
  Co  Co15  1  0.00000000  0.00000000  0.50086200  1
  Co  Co16  1  0.66666667  0.33333333  0.33542033  1
  Co  Co17  1  0.66666667  0.33333333  0.83419533  1
  P  P18  1  0.96396267  0.33392433  0.08270633  1
  P  P19  1  0.36996167  0.03603733  0.08270633  1
  P  P20  1  0.66607567  0.63003833  0.08270633  1
  P  P21  1  0.00040600  0.70384700  0.24988800  1
  P  P22  1  0.29615300  0.29655900  0.24988800  1
  P  P23  1  0.70344100  0.99959400  0.24988800  1
  P  P24  1  0.63062933  0.66725767  0.41603967  1
  P  P25  1  0.03662833  0.36937067  0.41603967  1
  P  P26  1  0.33274233  0.96337167  0.41603967  1
  P  P27  1  0.66707267  0.03718033  0.58322133  1
  P  P28  1  0.96281967  0.62989233  0.58322133  1
  P  P29  1  0.37010767  0.33292733  0.58322133  1
  P  P30  1  0.29729600  0.00059100  0.74937300  1
  P  P31  1  0.70329500  0.70270400  0.74937300  1
  P  P32  1  0.99940900  0.29670500  0.74937300  1
  P  P33  1  0.33373933  0.37051367  0.91655467  1
  P  P34  1  0.62948633  0.96322567  0.91655467  1
  P  P35  1  0.03677433  0.66626067  0.91655467  1
  O  O36  1  0.14061567  0.46416833  0.35490833  1
  O  O37  1  0.32355267  0.85938433  0.35490833  1
  O  O38  1  0.53583167  0.67644733  0.35490833  1
  O  O39  1  0.98645033  0.16693367  0.07418067  1
  O  O40  1  0.51751567  0.65616733  0.47704033  1
  O  O41  1  0.15086833  0.50096567  0.09483967  1
  O  O42  1  0.18048333  0.01354967  0.07418067  1
  O  O43  1  0.35009733  0.84913167  0.09483967  1
  O  O44  1  0.99051967  0.79722533  0.18823233  1
  O  O45  1  0.49903433  0.64990267  0.09483967  1
  O  O46  1  0.83218133  0.51111267  0.25841667  1
  O  O47  1  0.20277467  0.19329433  0.18823233  1
  O  O48  1  0.13865167  0.48248433  0.47704033  1
  O  O49  1  0.83306633  0.81951667  0.07418067  1
  O  O50  1  0.16603433  0.67850667  0.24012267  1
  O  O51  1  0.34383267  0.86134833  0.47704033  1
  O  O52  1  0.32149333  0.48752767  0.24012267  1
  O  O53  1  0.48888733  0.32106867  0.25841667  1
  O  O54  1  0.51247233  0.83396567  0.24012267  1
  O  O55  1  0.80670567  0.00948033  0.18823233  1
  O  O56  1  0.67893133  0.16781867  0.25841667  1
  O  O57  1  0.13198767  0.66148633  0.97845133  1
  O  O58  1  0.33851367  0.47050133  0.97845133  1
  O  O59  1  0.52949867  0.86801233  0.97845133  1
  O  O60  1  0.80728233  0.79750167  0.68824167  1
  O  O61  1  0.99021933  0.19271767  0.68824167  1
  O  O62  1  0.20249833  0.00978067  0.68824167  1
  O  O63  1  0.65311700  0.50026700  0.40751400  1
  O  O64  1  0.18418233  0.98950067  0.81037367  1
  O  O65  1  0.81753500  0.83429900  0.42817300  1
  O  O66  1  0.84715000  0.34688300  0.40751400  1
  O  O67  1  0.01676400  0.18246500  0.42817300  1
  O  O68  1  0.65718633  0.13055867  0.52156567  1
  O  O69  1  0.16570100  0.98323600  0.42817300  1
  O  O70  1  0.49884800  0.84444600  0.59175000  1
  O  O71  1  0.86944133  0.52662767  0.52156567  1
  O  O72  1  0.80531833  0.81581767  0.81037367  1
  O  O73  1  0.49973300  0.15285000  0.40751400  1
  O  O74  1  0.83270100  0.01184000  0.57345600  1
  O  O75  1  0.01049933  0.19468167  0.81037367  1
  O  O76  1  0.98816000  0.82086100  0.57345600  1
  O  O77  1  0.15555400  0.65440200  0.59175000  1
  O  O78  1  0.17913900  0.16729900  0.57345600  1
  O  O79  1  0.47337233  0.34281367  0.52156567  1
  O  O80  1  0.34559800  0.50115200  0.59175000  1
  O  O81  1  0.79865433  0.99481967  0.31178467  1
  O  O82  1  0.00518033  0.80383467  0.31178467  1
  O  O83  1  0.19616533  0.20134567  0.31178467  1
  O  O84  1  0.47394900  0.13083500  0.02157500  1
  O  O85  1  0.65688600  0.52605100  0.02157500  1
  O  O86  1  0.86916500  0.34311400  0.02157500  1
  O  O87  1  0.31978367  0.83360033  0.74084733  1
  O  O88  1  0.85084900  0.32283400  0.14370700  1
  O  O89  1  0.48420167  0.16763233  0.76150633  1
  O  O90  1  0.51381667  0.68021633  0.74084733  1
  O  O91  1  0.68343067  0.51579833  0.76150633  1
  O  O92  1  0.32385300  0.46389200  0.85489900  1
  O  O93  1  0.83236767  0.31656933  0.76150633  1
  O  O94  1  0.16551467  0.17777933  0.92508333  1
  O  O95  1  0.53610800  0.85996100  0.85489900  1
  O  O96  1  0.47198500  0.14915100  0.14370700  1
  O  O97  1  0.16639967  0.48618333  0.74084733  1
  O  O98  1  0.49936767  0.34517333  0.90678933  1
  O  O99  1  0.67716600  0.52801500  0.14370700  1
  O  O100  1  0.65482667  0.15419433  0.90678933  1
  O  O101  1  0.82222067  0.98773533  0.92508333  1
  O  O102  1  0.84580567  0.50063233  0.90678933  1
  O  O103  1  0.14003900  0.67614700  0.85489900  1
  O  O104  1  0.01226467  0.83448533  0.92508333  1
  O  O105  1  0.46532100  0.32815300  0.64511800  1
  O  O106  1  0.67184700  0.13716800  0.64511800  1
  O  O107  1  0.86283200  0.53467900  0.64511800  1
