# generated using pymatgen
data_RbFeO2
_symmetry_space_group_name_H-M   'P 1'
_cell_length_a   4.95744000
_cell_length_b   12.24787600
_cell_length_c   5.54959000
_cell_angle_alpha   90.00000000
_cell_angle_beta   90.00000000
_cell_angle_gamma   90.00000000
_symmetry_Int_Tables_number   1
_chemical_formula_structural   RbFeO2
_chemical_formula_sum   'Rb4 Fe4 O8'
_cell_volume   336.96061828
_cell_formula_units_Z   4
loop_
 _symmetry_equiv_pos_site_id
 _symmetry_equiv_pos_as_xyz
  1  'x, y, z'
loop_
 _atom_site_type_symbol
 _atom_site_label
 _atom_site_symmetry_multiplicity
 _atom_site_fract_x
 _atom_site_fract_y
 _atom_site_fract_z
 _atom_site_occupancy
  Rb  Rb0  1  0.50000000  0.80704400  0.75000000  1
  Rb  Rb1  1  0.00000000  0.69295600  0.25000000  1
  Rb  Rb2  1  0.00000000  0.30704400  0.75000000  1
  Rb  Rb3  1  0.50000000  0.19295600  0.25000000  1
  Fe  Fe4  1  0.50000000  0.50229100  0.75000000  1
  Fe  Fe5  1  0.00000000  0.99770900  0.25000000  1
  Fe  Fe6  1  0.00000000  0.00229100  0.75000000  1
  Fe  Fe7  1  0.50000000  0.49770900  0.25000000  1
  O  O8  1  0.50000000  0.60302900  0.49621300  1
  O  O9  1  0.50000000  0.60302900  0.00378700  1
  O  O10  1  0.00000000  0.89697100  0.50378700  1
  O  O11  1  0.00000000  0.89697100  0.99621300  1
  O  O12  1  0.00000000  0.10302900  0.49621300  1
  O  O13  1  0.00000000  0.10302900  0.00378700  1
  O  O14  1  0.50000000  0.39697100  0.50378700  1
  O  O15  1  0.50000000  0.39697100  0.99621300  1
