# generated using pymatgen
data_Li4CrFe3O8
_symmetry_space_group_name_H-M   'P 1'
_cell_length_a   5.96999840
_cell_length_b   5.96999840
_cell_length_c   14.70138194
_cell_angle_alpha   90.00000000
_cell_angle_beta   90.00000000
_cell_angle_gamma   120.00000000
_symmetry_Int_Tables_number   1
_chemical_formula_structural   Li4CrFe3O8
_chemical_formula_sum   'Li12 Cr3 Fe9 O24'
_cell_volume   453.77150703
_cell_formula_units_Z   3
loop_
 _symmetry_equiv_pos_site_id
 _symmetry_equiv_pos_as_xyz
  1  'x, y, z'
loop_
 _atom_site_type_symbol
 _atom_site_label
 _atom_site_symmetry_multiplicity
 _atom_site_fract_x
 _atom_site_fract_y
 _atom_site_fract_z
 _atom_site_occupancy
  Li  Li0  1  0.83333333  0.16666667  0.16666667  1
  Li  Li1  1  0.33333333  0.66666667  0.16666667  1
  Li  Li2  1  0.83333333  0.66666667  0.16666667  1
  Li  Li3  1  0.33333333  0.16666667  0.16666667  1
  Li  Li4  1  0.50000000  0.50000000  0.50000000  1
  Li  Li5  1  1.00000000  1.00000000  0.50000000  1
  Li  Li6  1  0.50000000  0.00000000  0.50000000  1
  Li  Li7  1  0.00000000  0.50000000  0.50000000  1
  Li  Li8  1  0.16666667  0.83333333  0.83333333  1
  Li  Li9  1  0.66666667  0.33333333  0.83333333  1
  Li  Li10  1  0.16666667  0.33333333  0.83333333  1
  Li  Li11  1  0.66666667  0.83333333  0.83333333  1
  Cr  Cr12  1  0.00000000  0.00000000  0.00000000  1
  Cr  Cr13  1  0.66666667  0.33333333  0.33333333  1
  Cr  Cr14  1  0.33333333  0.66666667  0.66666667  1
  Fe  Fe15  1  0.50000000  0.50000000  0.00000000  1
  Fe  Fe16  1  0.00000000  0.50000000  0.00000000  1
  Fe  Fe17  1  0.50000000  0.00000000  0.00000000  1
  Fe  Fe18  1  0.16666667  0.83333333  0.33333333  1
  Fe  Fe19  1  0.66666667  0.83333333  0.33333333  1
  Fe  Fe20  1  0.16666667  0.33333333  0.33333333  1
  Fe  Fe21  1  0.83333333  0.16666667  0.66666667  1
  Fe  Fe22  1  0.33333333  0.16666667  0.66666667  1
  Fe  Fe23  1  0.83333333  0.66666667  0.66666667  1
  O  O24  1  0.00000000  0.00000000  0.25746900  1
  O  O25  1  0.50074967  0.00149933  0.25734333  1
  O  O26  1  0.50074967  0.49925033  0.25734333  1
  O  O27  1  0.99850067  0.49925033  0.25734333  1
  O  O28  1  0.16591700  0.33183400  0.07599000  1
  O  O29  1  0.66666667  0.33333333  0.07586433  1
  O  O30  1  0.66816600  0.83408300  0.07599000  1
  O  O31  1  0.16591700  0.83408300  0.07599000  1
  O  O32  1  0.66666667  0.33333333  0.59080233  1
  O  O33  1  0.16741633  0.33483267  0.59067667  1
  O  O34  1  0.16741633  0.83258367  0.59067667  1
  O  O35  1  0.66516733  0.83258367  0.59067667  1
  O  O36  1  0.83258367  0.66516733  0.40932333  1
  O  O37  1  0.33333333  0.66666667  0.40919767  1
  O  O38  1  0.33483267  0.16741633  0.40932333  1
  O  O39  1  0.83258367  0.16741633  0.40932333  1
  O  O40  1  0.33333333  0.66666667  0.92413567  1
  O  O41  1  0.83408300  0.66816600  0.92401000  1
  O  O42  1  0.83408300  0.16591700  0.92401000  1
  O  O43  1  0.33183400  0.16591700  0.92401000  1
  O  O44  1  0.49925033  0.99850067  0.74265667  1
  O  O45  1  0.00000000  0.00000000  0.74253100  1
  O  O46  1  0.00149933  0.50074967  0.74265667  1
  O  O47  1  0.49925033  0.50074967  0.74265667  1
