# generated using pymatgen
data_Mn(SO4)2
_symmetry_space_group_name_H-M   'P 1'
_cell_length_a   8.20967411
_cell_length_b   8.20967411
_cell_length_c   22.31754601
_cell_angle_alpha   90.00000000
_cell_angle_beta   90.00000000
_cell_angle_gamma   120.00000000
_symmetry_Int_Tables_number   1
_chemical_formula_structural   Mn(SO4)2
_chemical_formula_sum   'Mn9 S18 O72'
_cell_volume   1302.65348607
_cell_formula_units_Z   9
loop_
 _symmetry_equiv_pos_site_id
 _symmetry_equiv_pos_as_xyz
  1  'x, y, z'
loop_
 _atom_site_type_symbol
 _atom_site_label
 _atom_site_symmetry_multiplicity
 _atom_site_fract_x
 _atom_site_fract_y
 _atom_site_fract_z
 _atom_site_occupancy
  Mn  Mn0  1  0.00000000  0.00000000  0.15220200  1
  Mn  Mn1  1  0.33333333  0.66666667  0.31293267  1
  Mn  Mn2  1  0.66666667  0.33333333  0.17997433  1
  Mn  Mn3  1  0.66666667  0.33333333  0.48553533  1
  Mn  Mn4  1  0.00000000  0.00000000  0.64626600  1
  Mn  Mn5  1  0.33333333  0.66666667  0.51330767  1
  Mn  Mn6  1  0.33333333  0.66666667  0.81886867  1
  Mn  Mn7  1  0.66666667  0.33333333  0.97959933  1
  Mn  Mn8  1  0.00000000  0.00000000  0.84664100  1
  S  S9  1  0.96221433  0.33111367  0.08504367  1
  S  S10  1  0.36889933  0.03778567  0.08504367  1
  S  S11  1  0.66888633  0.63110067  0.08504367  1
  S  S12  1  0.00038900  0.71107000  0.25058700  1
  S  S13  1  0.28893000  0.28931900  0.25058700  1
  S  S14  1  0.71068100  0.99961100  0.25058700  1
  S  S15  1  0.62888100  0.66444700  0.41837700  1
  S  S16  1  0.03556600  0.37111900  0.41837700  1
  S  S17  1  0.33555300  0.96443400  0.41837700  1
  S  S18  1  0.66705567  0.04440333  0.58392033  1
  S  S19  1  0.95559667  0.62265233  0.58392033  1
  S  S20  1  0.37734767  0.33294433  0.58392033  1
  S  S21  1  0.29554767  0.99778033  0.75171033  1
  S  S22  1  0.70223267  0.70445233  0.75171033  1
  S  S23  1  0.00221967  0.29776733  0.75171033  1
  S  S24  1  0.33372233  0.37773667  0.91725367  1
  S  S25  1  0.62226333  0.95598567  0.91725367  1
  S  S26  1  0.04401433  0.66627767  0.91725367  1
  O  O27  1  0.80556600  0.01373900  0.30565700  1
  O  O28  1  0.98626100  0.79182700  0.30565700  1
  O  O29  1  0.89775700  0.12848100  0.09933800  1
  O  O30  1  0.20817300  0.19443400  0.30565700  1
  O  O31  1  0.89214367  0.41546433  0.13198733  1
  O  O32  1  0.16197300  0.44889900  0.08191800  1
  O  O33  1  0.28692600  0.83802700  0.08191800  1
  O  O34  1  0.23072400  0.10224300  0.09933800  1
  O  O35  1  0.55110100  0.71307400  0.08191800  1
  O  O36  1  0.80844833  0.55544167  0.23330267  1
  O  O37  1  0.08492967  0.85329133  0.19945533  1
  O  O38  1  0.14670867  0.23163833  0.19945533  1
  O  O39  1  0.52332067  0.10785633  0.13198733  1
  O  O40  1  0.58453567  0.47667933  0.13198733  1
  O  O41  1  0.87151900  0.76927600  0.09933800  1
  O  O42  1  0.12925233  0.63063567  0.25313067  1
  O  O43  1  0.44455833  0.25300667  0.23330267  1
  O  O44  1  0.36936433  0.49861667  0.25313067  1
  O  O45  1  0.50138333  0.87074767  0.25313067  1
  O  O46  1  0.76836167  0.91507033  0.19945533  1
  O  O47  1  0.45370400  0.13166400  0.02619700  1
  O  O48  1  0.74699333  0.19155167  0.23330267  1
  O  O49  1  0.67796000  0.54629600  0.02619700  1
  O  O50  1  0.86833600  0.32204000  0.02619700  1
  O  O51  1  0.47223267  0.34707233  0.63899033  1
  O  O52  1  0.65292767  0.12516033  0.63899033  1
  O  O53  1  0.56442367  0.46181433  0.43267133  1
  O  O54  1  0.87483967  0.52776733  0.63899033  1
  O  O55  1  0.55881033  0.74879767  0.46532067  1
  O  O56  1  0.82863967  0.78223233  0.41525133  1
  O  O57  1  0.95359267  0.17136033  0.41525133  1
  O  O58  1  0.89739067  0.43557633  0.43267133  1
  O  O59  1  0.21776767  0.04640733  0.41525133  1
  O  O60  1  0.47511500  0.88877500  0.56663600  1
  O  O61  1  0.75159633  0.18662467  0.53278867  1
  O  O62  1  0.81337533  0.56497167  0.53278867  1
  O  O63  1  0.18998733  0.44118967  0.46532067  1
  O  O64  1  0.25120233  0.81001267  0.46532067  1
  O  O65  1  0.53818567  0.10260933  0.43267133  1
  O  O66  1  0.79591900  0.96396900  0.58646400  1
  O  O67  1  0.11122500  0.58634000  0.56663600  1
  O  O68  1  0.03603100  0.83195000  0.58646400  1
  O  O69  1  0.16805000  0.20408100  0.58646400  1
  O  O70  1  0.43502833  0.24840367  0.53278867  1
  O  O71  1  0.12037067  0.46499733  0.35953033  1
  O  O72  1  0.41366000  0.52488500  0.56663600  1
  O  O73  1  0.34462667  0.87962933  0.35953033  1
  O  O74  1  0.53500267  0.65537333  0.35953033  1
  O  O75  1  0.13889933  0.68040567  0.97232367  1
  O  O76  1  0.31959433  0.45849367  0.97232367  1
  O  O77  1  0.23109033  0.79514767  0.76600467  1
  O  O78  1  0.54150633  0.86110067  0.97232367  1
  O  O79  1  0.22547700  0.08213100  0.79865400  1
  O  O80  1  0.49530633  0.11556567  0.74858467  1
  O  O81  1  0.62025933  0.50469367  0.74858467  1
  O  O82  1  0.56405733  0.76890967  0.76600467  1
  O  O83  1  0.88443433  0.37974067  0.74858467  1
  O  O84  1  0.14178167  0.22210833  0.89996933  1
  O  O85  1  0.41826300  0.51995800  0.86612200  1
  O  O86  1  0.48004200  0.89830500  0.86612200  1
  O  O87  1  0.85665400  0.77452300  0.79865400  1
  O  O88  1  0.91786900  0.14334600  0.79865400  1
  O  O89  1  0.20485233  0.43594267  0.76600467  1
  O  O90  1  0.46258567  0.29730233  0.91979733  1
  O  O91  1  0.77789167  0.91967333  0.89996933  1
  O  O92  1  0.70269767  0.16528333  0.91979733  1
  O  O93  1  0.83471667  0.53741433  0.91979733  1
  O  O94  1  0.10169500  0.58173700  0.86612200  1
  O  O95  1  0.78703733  0.79833067  0.69286367  1
  O  O96  1  0.08032667  0.85821833  0.89996933  1
  O  O97  1  0.01129333  0.21296267  0.69286367  1
  O  O98  1  0.20166933  0.98870667  0.69286367  1
