# generated using pymatgen
data_Li3MnV(PO4)3
_symmetry_space_group_name_H-M   'P 1'
_cell_length_a   14.41754400
_cell_length_b   8.91753800
_cell_length_c   8.67556347
_cell_angle_alpha   90.00000000
_cell_angle_beta   123.83705209
_cell_angle_gamma   90.00000000
_symmetry_Int_Tables_number   1
_chemical_formula_structural   Li3MnV(PO4)3
_chemical_formula_sum   'Li12 Mn4 V4 P12 O48'
_cell_volume   926.48567407
_cell_formula_units_Z   4
loop_
 _symmetry_equiv_pos_site_id
 _symmetry_equiv_pos_as_xyz
  1  'x, y, z'
loop_
 _atom_site_type_symbol
 _atom_site_label
 _atom_site_symmetry_multiplicity
 _atom_site_fract_x
 _atom_site_fract_y
 _atom_site_fract_z
 _atom_site_occupancy
  Li  Li0  1  0.30935800  0.56279800  0.09285900  1
  Li  Li1  1  0.75158900  0.74712900  0.24899500  1
  Li  Li2  1  0.30824100  0.43591200  0.59321400  1
  Li  Li3  1  0.69064200  0.56279800  0.90714100  1
  Li  Li4  1  0.24841100  0.74712900  0.75100500  1
  Li  Li5  1  0.69175900  0.43591200  0.40678600  1
  Li  Li6  1  0.80935800  0.06279800  0.09285900  1
  Li  Li7  1  0.25158900  0.24712900  0.24899500  1
  Li  Li8  1  0.80824100  0.93591200  0.59321400  1
  Li  Li9  1  0.19064200  0.06279800  0.90714100  1
  Li  Li10  1  0.74841100  0.24712900  0.75100500  1
  Li  Li11  1  0.19175900  0.93591200  0.40678600  1
  Mn  Mn12  1  0.89053250  0.74750450  0.09961200  1
  Mn  Mn13  1  0.10946750  0.74750450  0.90038800  1
  Mn  Mn14  1  0.39053250  0.24750450  0.09961200  1
  Mn  Mn15  1  0.60946750  0.24750450  0.90038800  1
  V  V16  1  0.89116000  0.25329500  0.60585200  1
  V  V17  1  0.10884000  0.25329500  0.39414800  1
  V  V18  1  0.39116000  0.75329500  0.60585200  1
  V  V19  1  0.60884000  0.75329500  0.39414800  1
  P  P20  1  0.84851350  0.39853350  0.21501100  1
  P  P21  1  0.00000000  0.95173400  0.50000000  1
  P  P22  1  0.15148650  0.39853350  0.78498900  1
  P  P23  1  0.85087250  0.59920750  0.71377200  1
  P  P24  1  0.00000000  0.05661400  0.00000000  1
  P  P25  1  0.14912750  0.59920750  0.28622800  1
  P  P26  1  0.34851350  0.89853350  0.21501100  1
  P  P27  1  0.50000000  0.45173400  0.50000000  1
  P  P28  1  0.65148650  0.89853350  0.78498900  1
  P  P29  1  0.35087250  0.09920750  0.71377200  1
  P  P30  1  0.50000000  0.55661400  0.00000000  1
  P  P31  1  0.64912750  0.09920750  0.28622800  1
  O  O32  1  0.17561900  0.63390700  0.14000800  1
  O  O33  1  0.43039650  0.46244650  0.04955900  1
  O  O34  1  0.03115300  0.64780900  0.22220500  1
  O  O35  1  0.08906350  0.85537050  0.66899900  1
  O  O36  1  0.82036550  0.56678650  0.17498300  1
  O  O37  1  0.17963450  0.56678650  0.82501700  1
  O  O38  1  0.23038200  0.31125100  0.97542700  1
  O  O39  1  0.43154400  0.54857100  0.55107800  1
  O  O40  1  0.08732400  0.15552300  0.16778600  1
  O  O41  1  0.96884700  0.64780900  0.77779500  1
  O  O42  1  0.22852050  0.68244850  0.47542400  1
  O  O43  1  0.82438100  0.63390700  0.85999200  1
  O  O44  1  0.17444450  0.35508550  0.63740000  1
  O  O45  1  0.76961800  0.31125100  0.02457300  1
  O  O46  1  0.03494650  0.35293350  0.72610100  1
  O  O47  1  0.91093650  0.85537050  0.33100100  1
  O  O48  1  0.56960350  0.46244650  0.95044100  1
  O  O49  1  0.77147950  0.68244850  0.52457600  1
  O  O50  1  0.82681850  0.42931550  0.67108400  1
  O  O51  1  0.17318150  0.42931550  0.32891600  1
  O  O52  1  0.91267600  0.15552300  0.83221400  1
  O  O53  1  0.96505350  0.35293350  0.27389900  1
  O  O54  1  0.56845600  0.54857100  0.44892200  1
  O  O55  1  0.82555550  0.35508550  0.36260000  1
  O  O56  1  0.67561900  0.13390700  0.14000800  1
  O  O57  1  0.93039650  0.96244650  0.04955900  1
  O  O58  1  0.53115300  0.14780900  0.22220500  1
  O  O59  1  0.58906350  0.35537050  0.66899900  1
  O  O60  1  0.32036550  0.06678650  0.17498300  1
  O  O61  1  0.67963450  0.06678650  0.82501700  1
  O  O62  1  0.73038200  0.81125100  0.97542700  1
  O  O63  1  0.93154400  0.04857100  0.55107800  1
  O  O64  1  0.58732400  0.65552300  0.16778600  1
  O  O65  1  0.46884700  0.14780900  0.77779500  1
  O  O66  1  0.72852050  0.18244850  0.47542400  1
  O  O67  1  0.32438100  0.13390700  0.85999200  1
  O  O68  1  0.67444450  0.85508550  0.63740000  1
  O  O69  1  0.26961800  0.81125100  0.02457300  1
  O  O70  1  0.53494650  0.85293350  0.72610100  1
  O  O71  1  0.41093650  0.35537050  0.33100100  1
  O  O72  1  0.06960350  0.96244650  0.95044100  1
  O  O73  1  0.27147950  0.18244850  0.52457600  1
  O  O74  1  0.32681850  0.92931550  0.67108400  1
  O  O75  1  0.67318150  0.92931550  0.32891600  1
  O  O76  1  0.41267600  0.65552300  0.83221400  1
  O  O77  1  0.46505350  0.85293350  0.27389900  1
  O  O78  1  0.06845600  0.04857100  0.44892200  1
  O  O79  1  0.32555550  0.85508550  0.36260000  1
