# generated using pymatgen
data_Li4V2Co3Ni3O16
_symmetry_space_group_name_H-M   'P 1'
_cell_length_a   10.15373200
_cell_length_b   5.78294000
_cell_length_c   9.35876972
_cell_angle_alpha   90.00000000
_cell_angle_beta   91.26605929
_cell_angle_gamma   90.00000000
_symmetry_Int_Tables_number   1
_chemical_formula_structural   Li4V2Co3Ni3O16
_chemical_formula_sum   'Li8 V4 Co6 Ni6 O32'
_cell_volume   549.39804339
_cell_formula_units_Z   2
loop_
 _symmetry_equiv_pos_site_id
 _symmetry_equiv_pos_as_xyz
  1  'x, y, z'
loop_
 _atom_site_type_symbol
 _atom_site_label
 _atom_site_symmetry_multiplicity
 _atom_site_fract_x
 _atom_site_fract_y
 _atom_site_fract_z
 _atom_site_occupancy
  Li  Li0  1  0.83565700  0.50000000  0.09933200  1
  Li  Li1  1  0.99411900  0.00000000  0.00954600  1
  Li  Li2  1  0.99206100  0.00000000  0.50367300  1
  Li  Li3  1  0.67099300  0.00000000  0.60156200  1
  Li  Li4  1  0.33565700  0.00000000  0.09933200  1
  Li  Li5  1  0.49411900  0.50000000  0.00954600  1
  Li  Li6  1  0.49206100  0.50000000  0.50367300  1
  Li  Li7  1  0.17099300  0.50000000  0.60156200  1
  V  V8  1  0.83233100  0.50000000  0.50068800  1
  V  V9  1  0.64721700  0.00000000  0.01290500  1
  V  V10  1  0.33233100  0.00000000  0.50068800  1
  V  V11  1  0.14721700  0.50000000  0.01290500  1
  Co  Co12  1  0.90981450  0.74444750  0.78419900  1
  Co  Co13  1  0.90981450  0.25555250  0.78419900  1
  Co  Co14  1  0.82384500  0.00000000  0.27725100  1
  Co  Co15  1  0.40981450  0.24444750  0.78419900  1
  Co  Co16  1  0.40981450  0.75555250  0.78419900  1
  Co  Co17  1  0.32384500  0.50000000  0.27725100  1
  Ni  Ni18  1  0.66846400  0.50000000  0.78672100  1
  Ni  Ni19  1  0.58510700  0.24396400  0.28827100  1
  Ni  Ni20  1  0.58510700  0.75603600  0.28827100  1
  Ni  Ni21  1  0.16846400  0.00000000  0.78672100  1
  Ni  Ni22  1  0.08510700  0.74396400  0.28827100  1
  Ni  Ni23  1  0.08510700  0.25603600  0.28827100  1
  O  O24  1  0.90765950  0.73886750  0.40842200  1
  O  O25  1  0.97830800  0.50000000  0.66710000  1
  O  O26  1  0.84406600  0.50000000  0.88907300  1
  O  O27  1  0.98814400  0.00000000  0.69732100  1
  O  O28  1  0.98857400  0.00000000  0.20223000  1
  O  O29  1  0.90765950  0.26113250  0.40842200  1
  O  O30  1  0.76985350  0.72568450  0.65683700  1
  O  O31  1  0.76985350  0.27431550  0.65683700  1
  O  O32  1  0.83403100  0.00000000  0.89364300  1
  O  O33  1  0.67147200  0.50000000  0.42346100  1
  O  O34  1  0.74871650  0.20970150  0.15117200  1
  O  O35  1  0.74871650  0.79029850  0.15117200  1
  O  O36  1  0.67882800  0.00000000  0.39151600  1
  O  O37  1  0.58155950  0.24124450  0.90830900  1
  O  O38  1  0.52108600  0.00000000  0.14194500  1
  O  O39  1  0.58155950  0.75875550  0.90830900  1
  O  O40  1  0.40765950  0.23886750  0.40842200  1
  O  O41  1  0.47830800  0.00000000  0.66710000  1
  O  O42  1  0.34406600  0.00000000  0.88907300  1
  O  O43  1  0.48814400  0.50000000  0.69732100  1
  O  O44  1  0.48857400  0.50000000  0.20223000  1
  O  O45  1  0.40765950  0.76113250  0.40842200  1
  O  O46  1  0.26985350  0.22568450  0.65683700  1
  O  O47  1  0.26985350  0.77431550  0.65683700  1
  O  O48  1  0.33403100  0.50000000  0.89364300  1
  O  O49  1  0.17147200  0.00000000  0.42346100  1
  O  O50  1  0.24871650  0.70970150  0.15117200  1
  O  O51  1  0.24871650  0.29029850  0.15117200  1
  O  O52  1  0.17882800  0.50000000  0.39151600  1
  O  O53  1  0.08155950  0.74124450  0.90830900  1
  O  O54  1  0.02108600  0.50000000  0.14194500  1
  O  O55  1  0.08155950  0.25875550  0.90830900  1
