# generated using pymatgen
data_Cu2NiO4
_symmetry_space_group_name_H-M   'P 1'
_cell_length_a   5.32324200
_cell_length_b   5.32324200
_cell_length_c   9.86420800
_cell_angle_alpha   90.00000000
_cell_angle_beta   90.00000000
_cell_angle_gamma   90.00000000
_symmetry_Int_Tables_number   1
_chemical_formula_structural   Cu2NiO4
_chemical_formula_sum   'Cu8 Ni4 O16'
_cell_volume   279.52112885
_cell_formula_units_Z   4
loop_
 _symmetry_equiv_pos_site_id
 _symmetry_equiv_pos_as_xyz
  1  'x, y, z'
loop_
 _atom_site_type_symbol
 _atom_site_label
 _atom_site_symmetry_multiplicity
 _atom_site_fract_x
 _atom_site_fract_y
 _atom_site_fract_z
 _atom_site_occupancy
  Cu  Cu0  1  0.50000000  0.75000000  0.12500000  1
  Cu  Cu1  1  0.25000000  0.00000000  0.37500000  1
  Cu  Cu2  1  0.75000000  0.00000000  0.37500000  1
  Cu  Cu3  1  0.50000000  0.25000000  0.12500000  1
  Cu  Cu4  1  0.00000000  0.25000000  0.62500000  1
  Cu  Cu5  1  0.75000000  0.50000000  0.87500000  1
  Cu  Cu6  1  0.25000000  0.50000000  0.87500000  1
  Cu  Cu7  1  0.00000000  0.75000000  0.62500000  1
  Ni  Ni8  1  0.00000000  0.50000000  0.25000000  1
  Ni  Ni9  1  0.00000000  0.00000000  0.00000000  1
  Ni  Ni10  1  0.50000000  0.00000000  0.75000000  1
  Ni  Ni11  1  0.50000000  0.50000000  0.50000000  1
  O  O12  1  0.79764900  0.31539000  0.03352500  1
  O  O13  1  0.79764900  0.81539000  0.21647500  1
  O  O14  1  0.31539000  0.70235100  0.28352500  1
  O  O15  1  0.81539000  0.70235100  0.46647500  1
  O  O16  1  0.68461000  0.29764900  0.28352500  1
  O  O17  1  0.18461000  0.29764900  0.46647500  1
  O  O18  1  0.20235100  0.68461000  0.03352500  1
  O  O19  1  0.20235100  0.18461000  0.21647500  1
  O  O20  1  0.29764900  0.81539000  0.53352500  1
  O  O21  1  0.29764900  0.31539000  0.71647500  1
  O  O22  1  0.81539000  0.20235100  0.78352500  1
  O  O23  1  0.31539000  0.20235100  0.96647500  1
  O  O24  1  0.18461000  0.79764900  0.78352500  1
  O  O25  1  0.68461000  0.79764900  0.96647500  1
  O  O26  1  0.70235100  0.18461000  0.53352500  1
  O  O27  1  0.70235100  0.68461000  0.71647500  1
