# generated using pymatgen
data_Li4Co3Ni2Sb3O16
_symmetry_space_group_name_H-M   'P 1'
_cell_length_a   10.21572800
_cell_length_b   6.00772800
_cell_length_c   9.70936203
_cell_angle_alpha   90.00000000
_cell_angle_beta   90.27400617
_cell_angle_gamma   90.00000000
_symmetry_Int_Tables_number   1
_chemical_formula_structural   Li4Co3Ni2Sb3O16
_chemical_formula_sum   'Li8 Co6 Ni4 Sb6 O32'
_cell_volume   595.88892145
_cell_formula_units_Z   2
loop_
 _symmetry_equiv_pos_site_id
 _symmetry_equiv_pos_as_xyz
  1  'x, y, z'
loop_
 _atom_site_type_symbol
 _atom_site_label
 _atom_site_symmetry_multiplicity
 _atom_site_fract_x
 _atom_site_fract_y
 _atom_site_fract_z
 _atom_site_occupancy
  Li  Li0  1  0.66941200  0.00000000  0.86466900  1
  Li  Li1  1  0.97602000  0.00000000  0.98883400  1
  Li  Li2  1  0.98392900  0.00000000  0.50729700  1
  Li  Li3  1  0.33294900  0.00000000  0.40422200  1
  Li  Li4  1  0.16941200  0.50000000  0.86466900  1
  Li  Li5  1  0.47602000  0.50000000  0.98883400  1
  Li  Li6  1  0.48392900  0.50000000  0.50729700  1
  Li  Li7  1  0.83294900  0.50000000  0.40422200  1
  Co  Co8  1  0.83283900  0.00000000  0.21672400  1
  Co  Co9  1  0.41623300  0.24633100  0.71512000  1
  Co  Co10  1  0.41623300  0.75366900  0.71512000  1
  Co  Co11  1  0.33283900  0.50000000  0.21672400  1
  Co  Co12  1  0.91623300  0.74633100  0.71512000  1
  Co  Co13  1  0.91623300  0.25366900  0.71512000  1
  Ni  Ni14  1  0.67049900  0.00000000  0.51102200  1
  Ni  Ni15  1  0.34444500  0.00000000  0.97450400  1
  Ni  Ni16  1  0.17049900  0.50000000  0.51102200  1
  Ni  Ni17  1  0.84444500  0.50000000  0.97450400  1
  Sb  Sb18  1  0.58612300  0.24770900  0.21556200  1
  Sb  Sb19  1  0.58612300  0.75229100  0.21556200  1
  Sb  Sb20  1  0.17009400  0.00000000  0.71498500  1
  Sb  Sb21  1  0.08612300  0.74770900  0.21556200  1
  Sb  Sb22  1  0.08612300  0.25229100  0.21556200  1
  Sb  Sb23  1  0.67009400  0.50000000  0.71498500  1
  O  O24  1  0.57754450  0.26392650  0.60164700  1
  O  O25  1  0.51374500  0.00000000  0.33502100  1
  O  O26  1  0.67354800  0.00000000  0.10327000  1
  O  O27  1  0.99596100  0.00000000  0.31956700  1
  O  O28  1  0.99536400  0.00000000  0.80972400  1
  O  O29  1  0.57754450  0.73607350  0.60164700  1
  O  O30  1  0.74568100  0.22304200  0.33080300  1
  O  O31  1  0.74568100  0.77695800  0.33080300  1
  O  O32  1  0.15797000  0.00000000  0.09958700  1
  O  O33  1  0.83844400  0.00000000  0.61257000  1
  O  O34  1  0.26354550  0.22524950  0.83496300  1
  O  O35  1  0.26354550  0.77475050  0.83496300  1
  O  O36  1  0.33962400  0.00000000  0.60896700  1
  O  O37  1  0.42123550  0.26440750  0.10746000  1
  O  O38  1  0.48503900  0.00000000  0.82577300  1
  O  O39  1  0.42123550  0.73559250  0.10746000  1
  O  O40  1  0.07754450  0.76392650  0.60164700  1
  O  O41  1  0.01374500  0.50000000  0.33502100  1
  O  O42  1  0.17354800  0.50000000  0.10327000  1
  O  O43  1  0.49596100  0.50000000  0.31956700  1
  O  O44  1  0.49536400  0.50000000  0.80972400  1
  O  O45  1  0.07754450  0.23607350  0.60164700  1
  O  O46  1  0.24568100  0.72304200  0.33080300  1
  O  O47  1  0.24568100  0.27695800  0.33080300  1
  O  O48  1  0.65797000  0.50000000  0.09958700  1
  O  O49  1  0.33844400  0.50000000  0.61257000  1
  O  O50  1  0.76354550  0.72524950  0.83496300  1
  O  O51  1  0.76354550  0.27475050  0.83496300  1
  O  O52  1  0.83962400  0.50000000  0.60896700  1
  O  O53  1  0.92123550  0.76440750  0.10746000  1
  O  O54  1  0.98503900  0.50000000  0.82577300  1
  O  O55  1  0.92123550  0.23559250  0.10746000  1
