# generated using pymatgen
data_V2FeO6
_symmetry_space_group_name_H-M   'P 1'
_cell_length_a   10.16801463
_cell_length_b   9.29027183
_cell_length_c   5.91684030
_cell_angle_alpha   90.00000000
_cell_angle_beta   110.58193231
_cell_angle_gamma   90.00000000
_symmetry_Int_Tables_number   1
_chemical_formula_structural   V2FeO6
_chemical_formula_sum   'V8 Fe4 O24'
_cell_volume   523.25014193
_cell_formula_units_Z   4
loop_
 _symmetry_equiv_pos_site_id
 _symmetry_equiv_pos_as_xyz
  1  'x, y, z'
loop_
 _atom_site_type_symbol
 _atom_site_label
 _atom_site_symmetry_multiplicity
 _atom_site_fract_x
 _atom_site_fract_y
 _atom_site_fract_z
 _atom_site_occupancy
  V  V0  1  0.20241350  0.58887750  0.24245600  1
  V  V1  1  0.20241350  0.41112250  0.74245600  1
  V  V2  1  0.79758650  0.58887750  0.25754400  1
  V  V3  1  0.79758650  0.41112250  0.75754400  1
  V  V4  1  0.70241350  0.08887750  0.24245600  1
  V  V5  1  0.70241350  0.91112250  0.74245600  1
  V  V6  1  0.29758650  0.08887750  0.25754400  1
  V  V7  1  0.29758650  0.91112250  0.75754400  1
  Fe  Fe8  1  0.00000000  0.91265100  0.25000000  1
  Fe  Fe9  1  0.00000000  0.08734900  0.75000000  1
  Fe  Fe10  1  0.50000000  0.41265100  0.25000000  1
  Fe  Fe11  1  0.50000000  0.58734900  0.75000000  1
  O  O12  1  0.38262650  0.57753850  0.35615400  1
  O  O13  1  0.14509650  0.75960650  0.22311500  1
  O  O14  1  0.38262650  0.42246150  0.85615400  1
  O  O15  1  0.13964250  0.49176550  0.44689400  1
  O  O16  1  0.85490350  0.75960650  0.27688500  1
  O  O17  1  0.13964250  0.50823450  0.94689400  1
  O  O18  1  0.86035750  0.49176550  0.05310600  1
  O  O19  1  0.14509650  0.24039350  0.72311500  1
  O  O20  1  0.86035750  0.50823450  0.55310600  1
  O  O21  1  0.61737350  0.57753850  0.14384600  1
  O  O22  1  0.85490350  0.24039350  0.77688500  1
  O  O23  1  0.61737350  0.42246150  0.64384600  1
  O  O24  1  0.88262650  0.07753850  0.35615400  1
  O  O25  1  0.64509650  0.25960650  0.22311500  1
  O  O26  1  0.88262650  0.92246150  0.85615400  1
  O  O27  1  0.63964250  0.99176550  0.44689400  1
  O  O28  1  0.35490350  0.25960650  0.27688500  1
  O  O29  1  0.63964250  0.00823450  0.94689400  1
  O  O30  1  0.36035750  0.99176550  0.05310600  1
  O  O31  1  0.64509650  0.74039350  0.72311500  1
  O  O32  1  0.36035750  0.00823450  0.55310600  1
  O  O33  1  0.11737350  0.07753850  0.14384600  1
  O  O34  1  0.35490350  0.74039350  0.77688500  1
  O  O35  1  0.11737350  0.92246150  0.64384600  1
