# generated using pymatgen
data_Ca2Fe3Sb(PO4)6
_symmetry_space_group_name_H-M   'P 1'
_cell_length_a   8.67219179
_cell_length_b   8.67219179
_cell_length_c   22.11684490
_cell_angle_alpha   90.00000000
_cell_angle_beta   90.00000000
_cell_angle_gamma   120.00000000
_symmetry_Int_Tables_number   1
_chemical_formula_structural   Ca2Fe3Sb(PO4)6
_chemical_formula_sum   'Ca6 Fe9 Sb3 P18 O72'
_cell_volume   1440.49432596
_cell_formula_units_Z   3
loop_
 _symmetry_equiv_pos_site_id
 _symmetry_equiv_pos_as_xyz
  1  'x, y, z'
loop_
 _atom_site_type_symbol
 _atom_site_label
 _atom_site_symmetry_multiplicity
 _atom_site_fract_x
 _atom_site_fract_y
 _atom_site_fract_z
 _atom_site_occupancy
  Ca  Ca0  1  0.00000000  0.00000000  0.00566800  1
  Ca  Ca1  1  0.33333333  0.66666667  0.16655167  1
  Ca  Ca2  1  0.66666667  0.33333333  0.33900133  1
  Ca  Ca3  1  0.00000000  0.00000000  0.49988500  1
  Ca  Ca4  1  0.33333333  0.66666667  0.67233467  1
  Ca  Ca5  1  0.66666667  0.33333333  0.83321833  1
  Fe  Fe6  1  0.33333333  0.66666667  0.31391667  1
  Fe  Fe7  1  0.33333333  0.66666667  0.01857167  1
  Fe  Fe8  1  0.00000000  0.00000000  0.14852700  1
  Fe  Fe9  1  0.00000000  0.00000000  0.64725000  1
  Fe  Fe10  1  0.00000000  0.00000000  0.35190500  1
  Fe  Fe11  1  0.66666667  0.33333333  0.48186033  1
  Fe  Fe12  1  0.66666667  0.33333333  0.98058333  1
  Fe  Fe13  1  0.66666667  0.33333333  0.68523833  1
  Fe  Fe14  1  0.33333333  0.66666667  0.81519367  1
  Sb  Sb15  1  0.66666667  0.33333333  0.18653133  1
  Sb  Sb16  1  0.33333333  0.66666667  0.51986467  1
  Sb  Sb17  1  0.00000000  0.00000000  0.85319800  1
  P  P18  1  0.28834967  0.99704333  0.24928833  1
  P  P19  1  0.00295667  0.29130633  0.24928833  1
  P  P20  1  0.70869367  0.71165033  0.24928833  1
  P  P21  1  0.96025200  0.62615500  0.08184900  1
  P  P22  1  0.66590300  0.03974800  0.08184900  1
  P  P23  1  0.37384500  0.33409700  0.08184900  1
  P  P24  1  0.95501633  0.33037667  0.58262167  1
  P  P25  1  0.66962333  0.62463967  0.58262167  1
  P  P26  1  0.37536033  0.04498367  0.58262167  1
  P  P27  1  0.62691867  0.95948833  0.41518233  1
  P  P28  1  0.33256967  0.37308133  0.41518233  1
  P  P29  1  0.04051167  0.66743033  0.41518233  1
  P  P30  1  0.62168300  0.66371000  0.91595500  1
  P  P31  1  0.33629000  0.95797300  0.91595500  1
  P  P32  1  0.04202700  0.37831700  0.91595500  1
  P  P33  1  0.29358533  0.29282167  0.74851567  1
  P  P34  1  0.99923633  0.70641467  0.74851567  1
  P  P35  1  0.70717833  0.00076367  0.74851567  1
  O  O36  1  0.46729500  0.31723700  0.02614300  1
  O  O37  1  0.84994200  0.53270500  0.02614300  1
  O  O38  1  0.48298233  0.17281967  0.24808067  1
  O  O39  1  0.68276300  0.15005800  0.02614300  1
  O  O40  1  0.18801000  0.98648200  0.19150200  1
  O  O41  1  0.31524667  0.83494133  0.25044333  1
  O  O42  1  0.82718033  0.31016267  0.24808067  1
  O  O43  1  0.16505867  0.48030533  0.25044333  1
  O  O44  1  0.51969467  0.68475333  0.25044333  1
  O  O45  1  0.87312933  0.51859167  0.14231567  1
  O  O46  1  0.97592367  0.81087233  0.08482933  1
  O  O47  1  0.64546233  0.12687067  0.14231567  1
  O  O48  1  0.01351800  0.20152800  0.19150200  1
  O  O49  1  0.68983733  0.51701767  0.24808067  1
  O  O50  1  0.79847200  0.81199000  0.19150200  1
  O  O51  1  0.14528633  0.64235367  0.08279667  1
  O  O52  1  0.49706733  0.85471367  0.08279667  1
  O  O53  1  0.83494867  0.02407633  0.08482933  1
  O  O54  1  0.35764633  0.50293267  0.08279667  1
  O  O55  1  0.48140833  0.35453767  0.14231567  1
  O  O56  1  0.97711967  0.18468033  0.30727433  1
  O  O57  1  0.18912767  0.16505133  0.08482933  1
  O  O58  1  0.81531967  0.79243933  0.30727433  1
  O  O59  1  0.20756067  0.02288033  0.30727433  1
  O  O60  1  0.13396167  0.65057033  0.35947633  1
  O  O61  1  0.51660867  0.86603833  0.35947633  1
  O  O62  1  0.14964900  0.50615300  0.58141400  1
  O  O63  1  0.34942967  0.48339133  0.35947633  1
  O  O64  1  0.85467667  0.31981533  0.52483533  1
  O  O65  1  0.98191333  0.16827467  0.58377667  1
  O  O66  1  0.49384700  0.64349600  0.58141400  1
  O  O67  1  0.83172533  0.81363867  0.58377667  1
  O  O68  1  0.18636133  0.01808667  0.58377667  1
  O  O69  1  0.53979600  0.85192500  0.47564900  1
  O  O70  1  0.64259033  0.14420567  0.41816267  1
  O  O71  1  0.31212900  0.46020400  0.47564900  1
  O  O72  1  0.68018467  0.53486133  0.52483533  1
  O  O73  1  0.35650400  0.85035100  0.58141400  1
  O  O74  1  0.46513867  0.14532333  0.52483533  1
  O  O75  1  0.81195300  0.97568700  0.41613000  1
  O  O76  1  0.16373400  0.18804700  0.41613000  1
  O  O77  1  0.50161533  0.35740967  0.41816267  1
  O  O78  1  0.02431300  0.83626600  0.41613000  1
  O  O79  1  0.14807500  0.68787100  0.47564900  1
  O  O80  1  0.64378633  0.51801367  0.64060767  1
  O  O81  1  0.85579433  0.49838467  0.41816267  1
  O  O82  1  0.48198633  0.12577267  0.64060767  1
  O  O83  1  0.87422733  0.35621367  0.64060767  1
  O  O84  1  0.80062833  0.98390367  0.69280967  1
  O  O85  1  0.18327533  0.19937167  0.69280967  1
  O  O86  1  0.81631567  0.83948633  0.91474733  1
  O  O87  1  0.01609633  0.81672467  0.69280967  1
  O  O88  1  0.52134333  0.65314867  0.85816867  1
  O  O89  1  0.64858000  0.50160800  0.91711000  1
  O  O90  1  0.16051367  0.97682933  0.91474733  1
  O  O91  1  0.49839200  0.14697200  0.91711000  1
  O  O92  1  0.85302800  0.35142000  0.91711000  1
  O  O93  1  0.20646267  0.18525833  0.80898233  1
  O  O94  1  0.30925700  0.47753900  0.75149600  1
  O  O95  1  0.97879567  0.79353733  0.80898233  1
  O  O96  1  0.34685133  0.86819467  0.85816867  1
  O  O97  1  0.02317067  0.18368433  0.91474733  1
  O  O98  1  0.13180533  0.47865667  0.85816867  1
  O  O99  1  0.47861967  0.30902033  0.74946333  1
  O  O100  1  0.83040067  0.52138033  0.74946333  1
  O  O101  1  0.16828200  0.69074300  0.75149600  1
  O  O102  1  0.69097967  0.16959933  0.74946333  1
  O  O103  1  0.81474167  0.02120433  0.80898233  1
  O  O104  1  0.31045300  0.85134700  0.97394100  1
  O  O105  1  0.52246100  0.83171800  0.75149600  1
  O  O106  1  0.14865300  0.45910600  0.97394100  1
  O  O107  1  0.54089400  0.68954700  0.97394100  1
