# generated using pymatgen
data_Ba8Mn8O23
_symmetry_space_group_name_H-M   'P 1'
_cell_length_a   5.76565000
_cell_length_b   10.06179200
_cell_length_c   19.41513300
_cell_angle_alpha   90.00000000
_cell_angle_beta   90.00000000
_cell_angle_gamma   90.00000000
_symmetry_Int_Tables_number   1
_chemical_formula_structural   Ba8Mn8O23
_chemical_formula_sum   'Ba16 Mn16 O46'
_cell_volume   1126.32566553
_cell_formula_units_Z   2
loop_
 _symmetry_equiv_pos_site_id
 _symmetry_equiv_pos_as_xyz
  1  'x, y, z'
loop_
 _atom_site_type_symbol
 _atom_site_label
 _atom_site_symmetry_multiplicity
 _atom_site_fract_x
 _atom_site_fract_y
 _atom_site_fract_z
 _atom_site_occupancy
  Ba  Ba0  1  0.00000000  0.33143600  0.13745000  1
  Ba  Ba1  1  0.00000000  0.33286100  0.37651300  1
  Ba  Ba2  1  0.00000000  0.00402300  0.00000000  1
  Ba  Ba3  1  0.00000000  0.33286100  0.62348700  1
  Ba  Ba4  1  0.00000000  0.33143600  0.86255000  1
  Ba  Ba5  1  0.50000000  0.16778500  0.74547200  1
  Ba  Ba6  1  0.50000000  0.16617300  0.50000000  1
  Ba  Ba7  1  0.50000000  0.16778500  0.25452800  1
  Ba  Ba8  1  0.50000000  0.83143600  0.13745000  1
  Ba  Ba9  1  0.50000000  0.83286100  0.37651300  1
  Ba  Ba10  1  0.50000000  0.50402300  0.00000000  1
  Ba  Ba11  1  0.50000000  0.83286100  0.62348700  1
  Ba  Ba12  1  0.50000000  0.83143600  0.86255000  1
  Ba  Ba13  1  0.00000000  0.66778500  0.74547200  1
  Ba  Ba14  1  0.00000000  0.66617300  0.50000000  1
  Ba  Ba15  1  0.00000000  0.66778500  0.25452800  1
  Mn  Mn16  1  0.00000000  0.00291900  0.69328000  1
  Mn  Mn17  1  0.00000000  0.00252600  0.17544000  1
  Mn  Mn18  1  0.00000000  0.00291900  0.30672000  1
  Mn  Mn19  1  0.50000000  0.49974600  0.43579200  1
  Mn  Mn20  1  0.50000000  0.49974600  0.56420800  1
  Mn  Mn21  1  0.00000000  0.00252600  0.82456000  1
  Mn  Mn22  1  0.50000000  0.17433900  0.92807800  1
  Mn  Mn23  1  0.50000000  0.17433900  0.07192200  1
  Mn  Mn24  1  0.50000000  0.50291900  0.69328000  1
  Mn  Mn25  1  0.50000000  0.50252600  0.17544000  1
  Mn  Mn26  1  0.50000000  0.50291900  0.30672000  1
  Mn  Mn27  1  0.00000000  0.99974600  0.43579200  1
  Mn  Mn28  1  0.00000000  0.99974600  0.56420800  1
  Mn  Mn29  1  0.50000000  0.50252600  0.82456000  1
  Mn  Mn30  1  0.00000000  0.67433900  0.92807800  1
  Mn  Mn31  1  0.00000000  0.67433900  0.07192200  1
  O  O32  1  0.27563150  0.42534350  0.50000000  1
  O  O33  1  0.27783150  0.43024150  0.24427700  1
  O  O34  1  0.27783150  0.43024150  0.75572300  1
  O  O35  1  0.72216850  0.43024150  0.24427700  1
  O  O36  1  0.72216850  0.43024150  0.75572300  1
  O  O37  1  0.72436850  0.42534350  0.50000000  1
  O  O38  1  0.00000000  0.15316800  0.24592600  1
  O  O39  1  0.00000000  0.15316800  0.75407400  1
  O  O40  1  0.71787050  0.22425050  0.00000000  1
  O  O41  1  0.50000000  0.35270800  0.62824300  1
  O  O42  1  0.50000000  0.35270800  0.37175700  1
  O  O43  1  0.50000000  0.34241200  0.12537700  1
  O  O44  1  0.50000000  0.34241200  0.87462300  1
  O  O45  1  0.00000000  0.14822800  0.50000000  1
  O  O46  1  0.77557250  0.07456450  0.37286100  1
  O  O47  1  0.77557250  0.07456450  0.62713900  1
  O  O48  1  0.28212950  0.22425050  0.00000000  1
  O  O49  1  0.74726500  0.07835400  0.12068200  1
  O  O50  1  0.74726500  0.07835400  0.87931800  1
  O  O51  1  0.25273500  0.07835400  0.12068200  1
  O  O52  1  0.25273500  0.07835400  0.87931800  1
  O  O53  1  0.22442750  0.07456450  0.37286100  1
  O  O54  1  0.22442750  0.07456450  0.62713900  1
  O  O55  1  0.77563150  0.92534350  0.50000000  1
  O  O56  1  0.77783150  0.93024150  0.24427700  1
  O  O57  1  0.77783150  0.93024150  0.75572300  1
  O  O58  1  0.22216850  0.93024150  0.24427700  1
  O  O59  1  0.22216850  0.93024150  0.75572300  1
  O  O60  1  0.22436850  0.92534350  0.50000000  1
  O  O61  1  0.50000000  0.65316800  0.24592600  1
  O  O62  1  0.50000000  0.65316800  0.75407400  1
  O  O63  1  0.21787050  0.72425050  0.00000000  1
  O  O64  1  0.00000000  0.85270800  0.62824300  1
  O  O65  1  0.00000000  0.85270800  0.37175700  1
  O  O66  1  0.00000000  0.84241200  0.12537700  1
  O  O67  1  0.00000000  0.84241200  0.87462300  1
  O  O68  1  0.50000000  0.64822800  0.50000000  1
  O  O69  1  0.27557250  0.57456450  0.37286100  1
  O  O70  1  0.27557250  0.57456450  0.62713900  1
  O  O71  1  0.78212950  0.72425050  0.00000000  1
  O  O72  1  0.24726500  0.57835400  0.12068200  1
  O  O73  1  0.24726500  0.57835400  0.87931800  1
  O  O74  1  0.75273500  0.57835400  0.12068200  1
  O  O75  1  0.75273500  0.57835400  0.87931800  1
  O  O76  1  0.72442750  0.57456450  0.37286100  1
  O  O77  1  0.72442750  0.57456450  0.62713900  1
