# generated using pymatgen
data_Li2MnP2O7
_symmetry_space_group_name_H-M   'P 1'
_cell_length_a   14.41604200
_cell_length_b   5.66775600
_cell_length_c   8.00886654
_cell_angle_alpha   90.00000000
_cell_angle_beta   117.06619332
_cell_angle_gamma   90.00000000
_symmetry_Int_Tables_number   1
_chemical_formula_structural   Li2MnP2O7
_chemical_formula_sum   'Li8 Mn4 P8 O28'
_cell_volume   582.71086035
_cell_formula_units_Z   4
loop_
 _symmetry_equiv_pos_site_id
 _symmetry_equiv_pos_as_xyz
  1  'x, y, z'
loop_
 _atom_site_type_symbol
 _atom_site_label
 _atom_site_symmetry_multiplicity
 _atom_site_fract_x
 _atom_site_fract_y
 _atom_site_fract_z
 _atom_site_occupancy
  Li  Li0  1  0.22660100  0.84751700  0.80739100  1
  Li  Li1  1  0.27339900  0.34751700  0.69260900  1
  Li  Li2  1  0.22660100  0.15248300  0.30739100  1
  Li  Li3  1  0.27339900  0.65248300  0.19260900  1
  Li  Li4  1  0.72660100  0.34751700  0.80739100  1
  Li  Li5  1  0.77339900  0.84751700  0.69260900  1
  Li  Li6  1  0.72660100  0.65248300  0.30739100  1
  Li  Li7  1  0.77339900  0.15248300  0.19260900  1
  Mn  Mn8  1  0.00000000  0.00000000  0.50000000  1
  Mn  Mn9  1  0.00000000  0.00000000  0.00000000  1
  Mn  Mn10  1  0.50000000  0.50000000  0.50000000  1
  Mn  Mn11  1  0.50000000  0.50000000  0.00000000  1
  P  P12  1  0.11440450  0.36187950  0.85751100  1
  P  P13  1  0.11440450  0.63812050  0.35751100  1
  P  P14  1  0.38559550  0.86187950  0.64248900  1
  P  P15  1  0.38559550  0.13812050  0.14248900  1
  P  P16  1  0.61440450  0.86187950  0.85751100  1
  P  P17  1  0.61440450  0.13812050  0.35751100  1
  P  P18  1  0.88559550  0.36187950  0.64248900  1
  P  P19  1  0.88559550  0.63812050  0.14248900  1
  O  O20  1  0.12298500  0.18403600  0.71799300  1
  O  O21  1  0.19373600  0.55801200  0.91350200  1
  O  O22  1  0.11464750  0.76731550  0.52687200  1
  O  O23  1  0.12298500  0.81596400  0.21799300  1
  O  O24  1  0.19373600  0.44198800  0.41350200  1
  O  O25  1  0.11464750  0.23268450  0.02687200  1
  O  O26  1  0.38535250  0.26731550  0.97312800  1
  O  O27  1  0.30626400  0.05801200  0.58649800  1
  O  O28  1  0.37701500  0.68403600  0.78200700  1
  O  O29  1  0.38535250  0.73268450  0.47312800  1
  O  O30  1  0.30626400  0.94198800  0.08649800  1
  O  O31  1  0.37701500  0.31596400  0.28200700  1
  O  O32  1  0.00000000  0.49050700  0.75000000  1
  O  O33  1  0.00000000  0.50949300  0.25000000  1
  O  O34  1  0.62298500  0.68403600  0.71799300  1
  O  O35  1  0.69373600  0.05801200  0.91350200  1
  O  O36  1  0.61464750  0.26731550  0.52687200  1
  O  O37  1  0.62298500  0.31596400  0.21799300  1
  O  O38  1  0.69373600  0.94198800  0.41350200  1
  O  O39  1  0.61464750  0.73268450  0.02687200  1
  O  O40  1  0.88535250  0.76731550  0.97312800  1
  O  O41  1  0.80626400  0.55801200  0.58649800  1
  O  O42  1  0.87701500  0.18403600  0.78200700  1
  O  O43  1  0.88535250  0.23268450  0.47312800  1
  O  O44  1  0.80626400  0.44198800  0.08649800  1
  O  O45  1  0.87701500  0.81596400  0.28200700  1
  O  O46  1  0.50000000  0.99050700  0.75000000  1
  O  O47  1  0.50000000  0.00949300  0.25000000  1
