# generated using pymatgen
data_Li4Nb2Fe3Sb3O16
_symmetry_space_group_name_H-M   'P 1'
_cell_length_a   11.00086600
_cell_length_b   6.24229200
_cell_length_c   9.99205836
_cell_angle_alpha   90.00000000
_cell_angle_beta   90.84993272
_cell_angle_gamma   90.00000000
_symmetry_Int_Tables_number   1
_chemical_formula_structural   Li4Nb2Fe3Sb3O16
_chemical_formula_sum   'Li8 Nb4 Fe6 Sb6 O32'
_cell_volume   686.08532719
_cell_formula_units_Z   2
loop_
 _symmetry_equiv_pos_site_id
 _symmetry_equiv_pos_as_xyz
  1  'x, y, z'
loop_
 _atom_site_type_symbol
 _atom_site_label
 _atom_site_symmetry_multiplicity
 _atom_site_fract_x
 _atom_site_fract_y
 _atom_site_fract_z
 _atom_site_occupancy
  Li  Li0  1  0.82988200  0.50000000  0.89417600  1
  Li  Li1  1  0.51455900  0.50000000  0.98242200  1
  Li  Li2  1  0.51024400  0.50000000  0.49588100  1
  Li  Li3  1  0.66591800  0.00000000  0.41430600  1
  Li  Li4  1  0.32988200  0.00000000  0.89417600  1
  Li  Li5  1  0.01455900  0.00000000  0.98242200  1
  Li  Li6  1  0.01024400  0.00000000  0.49588100  1
  Li  Li7  1  0.16591800  0.50000000  0.41430600  1
  Nb  Nb8  1  0.83103700  0.50000000  0.49833600  1
  Nb  Nb9  1  0.65721500  0.00000000  0.97879600  1
  Nb  Nb10  1  0.33103700  0.00000000  0.49833600  1
  Nb  Nb11  1  0.15721500  0.50000000  0.97879600  1
  Fe  Fe12  1  0.66795600  0.50000000  0.21171400  1
  Fe  Fe13  1  0.58839900  0.75040000  0.71035100  1
  Fe  Fe14  1  0.58839900  0.24960000  0.71035100  1
  Fe  Fe15  1  0.16795600  0.00000000  0.21171400  1
  Fe  Fe16  1  0.08839900  0.25040000  0.71035100  1
  Fe  Fe17  1  0.08839900  0.74960000  0.71035100  1
  Sb  Sb18  1  0.91117100  0.26023700  0.21370600  1
  Sb  Sb19  1  0.91117100  0.73976300  0.21370600  1
  Sb  Sb20  1  0.82950300  0.00000000  0.71599900  1
  Sb  Sb21  1  0.41117100  0.76023700  0.21370600  1
  Sb  Sb22  1  0.41117100  0.23976300  0.21370600  1
  Sb  Sb23  1  0.32950300  0.50000000  0.71599900  1
  O  O24  1  0.90226850  0.23909750  0.59633700  1
  O  O25  1  0.97962800  0.50000000  0.39524700  1
  O  O26  1  0.80511100  0.50000000  0.09299600  1
  O  O27  1  0.51268300  0.50000000  0.30939400  1
  O  O28  1  0.99455600  0.00000000  0.79984500  1
  O  O29  1  0.90226850  0.76090250  0.59633700  1
  O  O30  1  0.75968800  0.28748000  0.34370600  1
  O  O31  1  0.75968800  0.71252000  0.34370600  1
  O  O32  1  0.83561500  0.00000000  0.09692700  1
  O  O33  1  0.67009900  0.50000000  0.59374200  1
  O  O34  1  0.75346050  0.78948750  0.84382600  1
  O  O35  1  0.75346050  0.21051250  0.84382600  1
  O  O36  1  0.67542000  0.00000000  0.60985600  1
  O  O37  1  0.60210400  0.75433600  0.08023900  1
  O  O38  1  0.52791100  0.00000000  0.84757200  1
  O  O39  1  0.60210400  0.24566400  0.08023900  1
  O  O40  1  0.40226850  0.73909750  0.59633700  1
  O  O41  1  0.47962800  0.00000000  0.39524700  1
  O  O42  1  0.30511100  0.00000000  0.09299600  1
  O  O43  1  0.01268300  0.00000000  0.30939400  1
  O  O44  1  0.49455600  0.50000000  0.79984500  1
  O  O45  1  0.40226850  0.26090250  0.59633700  1
  O  O46  1  0.25968800  0.78748000  0.34370600  1
  O  O47  1  0.25968800  0.21252000  0.34370600  1
  O  O48  1  0.33561500  0.50000000  0.09692700  1
  O  O49  1  0.17009900  0.00000000  0.59374200  1
  O  O50  1  0.25346050  0.28948750  0.84382600  1
  O  O51  1  0.25346050  0.71051250  0.84382600  1
  O  O52  1  0.17542000  0.50000000  0.60985600  1
  O  O53  1  0.10210400  0.25433600  0.08023900  1
  O  O54  1  0.02791100  0.50000000  0.84757200  1
  O  O55  1  0.10210400  0.74566400  0.08023900  1
