# generated using pymatgen
data_Mn2Ni3P6WO24
_symmetry_space_group_name_H-M   'P 1'
_cell_length_a   8.72301615
_cell_length_b   8.72301615
_cell_length_c   21.11013051
_cell_angle_alpha   90.00000000
_cell_angle_beta   90.00000000
_cell_angle_gamma   120.00000000
_symmetry_Int_Tables_number   1
_chemical_formula_structural   Mn2Ni3P6WO24
_chemical_formula_sum   'Mn6 Ni9 P18 W3 O72'
_cell_volume   1391.08895708
_cell_formula_units_Z   3
loop_
 _symmetry_equiv_pos_site_id
 _symmetry_equiv_pos_as_xyz
  1  'x, y, z'
loop_
 _atom_site_type_symbol
 _atom_site_label
 _atom_site_symmetry_multiplicity
 _atom_site_fract_x
 _atom_site_fract_y
 _atom_site_fract_z
 _atom_site_occupancy
  Mn  Mn0  1  0.33333333  0.66666667  0.67533767  1
  Mn  Mn1  1  0.33333333  0.66666667  0.16758767  1
  Mn  Mn2  1  0.00000000  0.00000000  0.00867100  1
  Mn  Mn3  1  0.00000000  0.00000000  0.50092100  1
  Mn  Mn4  1  0.66666667  0.33333333  0.34200433  1
  Mn  Mn5  1  0.66666667  0.33333333  0.83425433  1
  Ni  Ni6  1  0.33333333  0.66666667  0.02416367  1
  Ni  Ni7  1  0.33333333  0.66666667  0.81209167  1
  Ni  Ni8  1  0.33333333  0.66666667  0.30984667  1
  Ni  Ni9  1  0.00000000  0.00000000  0.35749700  1
  Ni  Ni10  1  0.00000000  0.00000000  0.14542500  1
  Ni  Ni11  1  0.00000000  0.00000000  0.64318000  1
  Ni  Ni12  1  0.66666667  0.33333333  0.69083033  1
  Ni  Ni13  1  0.66666667  0.33333333  0.47875833  1
  Ni  Ni14  1  0.66666667  0.33333333  0.97651333  1
  P  P15  1  0.66349467  0.62862633  0.08112233  1
  P  P16  1  0.96513167  0.33650533  0.08112233  1
  P  P17  1  0.37137367  0.03486833  0.08112233  1
  P  P18  1  0.28725900  0.29422100  0.24940100  1
  P  P19  1  0.70577900  0.99303800  0.24940100  1
  P  P20  1  0.00696200  0.71274100  0.24940100  1
  P  P21  1  0.33016133  0.96195967  0.41445567  1
  P  P22  1  0.63179833  0.66983867  0.41445567  1
  P  P23  1  0.03804033  0.36820167  0.41445567  1
  P  P24  1  0.95392567  0.62755433  0.58273433  1
  P  P25  1  0.37244567  0.32637133  0.58273433  1
  P  P26  1  0.67362867  0.04607433  0.58273433  1
  P  P27  1  0.99682800  0.29529300  0.74778900  1
  P  P28  1  0.29846500  0.00317200  0.74778900  1
  P  P29  1  0.70470700  0.70153500  0.74778900  1
  P  P30  1  0.62059233  0.96088767  0.91606767  1
  P  P31  1  0.03911233  0.65970467  0.91606767  1
  P  P32  1  0.34029533  0.37940767  0.91606767  1
  W  W33  1  0.33333333  0.66666667  0.52409767  1
  W  W34  1  0.00000000  0.00000000  0.85743100  1
  W  W35  1  0.66666667  0.33333333  0.19076433  1
  O  O36  1  0.53783533  0.67662667  0.35570167  1
  O  O37  1  0.13879133  0.46216467  0.35570167  1
  O  O38  1  0.32337333  0.86120867  0.35570167  1
  O  O39  1  0.82980833  0.81353667  0.07865667  1
  O  O40  1  0.34336200  0.85497800  0.47515900  1
  O  O41  1  0.49432667  0.63733333  0.09510333  1
  O  O42  1  0.98372833  0.17019167  0.07865667  1
  O  O43  1  0.14300667  0.50567333  0.09510333  1
  O  O44  1  0.20079667  0.19952133  0.18852633  1
  O  O45  1  0.36266667  0.85699333  0.09510333  1
  O  O46  1  0.48944333  0.32524667  0.25164067  1
  O  O47  1  0.80047867  0.00127533  0.18852633  1
  O  O48  1  0.51161600  0.65663800  0.47515900  1
  O  O49  1  0.18646333  0.01627167  0.07865667  1
  O  O50  1  0.31872533  0.48562167  0.24274367  1
  O  O51  1  0.14502200  0.48838400  0.47515900  1
  O  O52  1  0.51437833  0.83310367  0.24274367  1
  O  O53  1  0.67475333  0.16419667  0.25164067  1
  O  O54  1  0.16689633  0.68127467  0.24274367  1
  O  O55  1  0.99872467  0.79920333  0.18852633  1
  O  O56  1  0.83580333  0.51055667  0.25164067  1
  O  O57  1  0.32587533  0.45955267  0.97757067  1
  O  O58  1  0.54044733  0.86632267  0.97757067  1
  O  O59  1  0.13367733  0.67412467  0.97757067  1
  O  O60  1  0.20450200  0.00996000  0.68903500  1
  O  O61  1  0.80545800  0.79549800  0.68903500  1
  O  O62  1  0.99004000  0.19454200  0.68903500  1
  O  O63  1  0.49647500  0.14687000  0.41199000  1
  O  O64  1  0.01002867  0.18831133  0.80849233  1
  O  O65  1  0.16099333  0.97066667  0.42843667  1
  O  O66  1  0.65039500  0.50352500  0.41199000  1
  O  O67  1  0.80967333  0.83900667  0.42843667  1
  O  O68  1  0.86746333  0.53285467  0.52185967  1
  O  O69  1  0.02933333  0.19032667  0.42843667  1
  O  O70  1  0.15611000  0.65858000  0.58497400  1
  O  O71  1  0.46714533  0.33460867  0.52185967  1
  O  O72  1  0.17828267  0.98997133  0.80849233  1
  O  O73  1  0.85313000  0.34960500  0.41199000  1
  O  O74  1  0.98539200  0.81895500  0.57607700  1
  O  O75  1  0.81168867  0.82171733  0.80849233  1
  O  O76  1  0.18104500  0.16643700  0.57607700  1
  O  O77  1  0.34142000  0.49753000  0.58497400  1
  O  O78  1  0.83356300  0.01460800  0.57607700  1
  O  O79  1  0.66539133  0.13253667  0.52185967  1
  O  O80  1  0.50247000  0.84389000  0.58497400  1
  O  O81  1  0.99254200  0.79288600  0.31090400  1
  O  O82  1  0.20711400  0.19965600  0.31090400  1
  O  O83  1  0.80034400  0.00745800  0.31090400  1
  O  O84  1  0.87116867  0.34329333  0.02236833  1
  O  O85  1  0.47212467  0.12883133  0.02236833  1
  O  O86  1  0.65670667  0.52787533  0.02236833  1
  O  O87  1  0.16314167  0.48020333  0.74532333  1
  O  O88  1  0.67669533  0.52164467  0.14182567  1
  O  O89  1  0.82766000  0.30400000  0.76177000  1
  O  O90  1  0.31706167  0.83685833  0.74532333  1
  O  O91  1  0.47634000  0.17234000  0.76177000  1
  O  O92  1  0.53413000  0.86618800  0.85519300  1
  O  O93  1  0.69600000  0.52366000  0.76177000  1
  O  O94  1  0.82277667  0.99191333  0.91830733  1
  O  O95  1  0.13381200  0.66794200  0.85519300  1
  O  O96  1  0.84494933  0.32330467  0.14182567  1
  O  O97  1  0.51979667  0.68293833  0.74532333  1
  O  O98  1  0.65205867  0.15228833  0.90941033  1
  O  O99  1  0.47835533  0.15505067  0.14182567  1
  O  O100  1  0.84771167  0.49977033  0.90941033  1
  O  O101  1  0.00808667  0.83086333  0.91830733  1
  O  O102  1  0.50022967  0.34794133  0.90941033  1
  O  O103  1  0.33205800  0.46587000  0.85519300  1
  O  O104  1  0.16913667  0.17722333  0.91830733  1
  O  O105  1  0.65920867  0.12621933  0.64423733  1
  O  O106  1  0.87378067  0.53298933  0.64423733  1
  O  O107  1  0.46701067  0.34079133  0.64423733  1
