# generated using pymatgen
data_Li6AlFeO6
_symmetry_space_group_name_H-M   'P 1'
_cell_length_a   5.40683214
_cell_length_b   5.40683214
_cell_length_c   9.78452429
_cell_angle_alpha   90.00000000
_cell_angle_beta   90.00000000
_cell_angle_gamma   120.00000000
_symmetry_Int_Tables_number   1
_chemical_formula_structural   Li6AlFeO6
_chemical_formula_sum   'Li12 Al2 Fe2 O12'
_cell_volume   247.71717609
_cell_formula_units_Z   2
loop_
 _symmetry_equiv_pos_site_id
 _symmetry_equiv_pos_as_xyz
  1  'x, y, z'
loop_
 _atom_site_type_symbol
 _atom_site_label
 _atom_site_symmetry_multiplicity
 _atom_site_fract_x
 _atom_site_fract_y
 _atom_site_fract_z
 _atom_site_occupancy
  Li  Li0  1  0.93998050  0.62311400  0.92540250  1
  Li  Li1  1  0.06001950  0.68313350  0.42540250  1
  Li  Li2  1  0.62311400  0.93998050  0.42540250  1
  Li  Li3  1  0.93998050  0.31686650  0.57459750  1
  Li  Li4  1  0.68313350  0.06001950  0.92540250  1
  Li  Li5  1  0.06001950  0.37688600  0.07459750  1
  Li  Li6  1  0.62311400  0.68313350  0.07459750  1
  Li  Li7  1  0.37688600  0.31686650  0.92540250  1
  Li  Li8  1  0.31686650  0.37688600  0.42540250  1
  Li  Li9  1  0.68313350  0.62311400  0.57459750  1
  Li  Li10  1  0.37688600  0.06001950  0.57459750  1
  Li  Li11  1  0.31686650  0.93998050  0.07459750  1
  Al  Al12  1  0.66666667  0.33333333  0.25000000  1
  Al  Al13  1  0.33333333  0.66666667  0.75000000  1
  Fe  Fe14  1  0.00000000  0.00000000  0.75000000  1
  Fe  Fe15  1  0.00000000  0.00000000  0.25000000  1
  O  O16  1  0.05676750  0.70572600  0.63464400  1
  O  O17  1  0.94323250  0.64895850  0.13464400  1
  O  O18  1  0.64895850  0.94323250  0.63464400  1
  O  O19  1  0.05676750  0.35104150  0.86535600  1
  O  O20  1  0.94323250  0.29427400  0.36535600  1
  O  O21  1  0.70572600  0.05676750  0.13464400  1
  O  O22  1  0.35104150  0.29427400  0.13464400  1
  O  O23  1  0.70572600  0.64895850  0.36535600  1
  O  O24  1  0.29427400  0.35104150  0.63464400  1
  O  O25  1  0.64895850  0.70572600  0.86535600  1
  O  O26  1  0.29427400  0.94323250  0.86535600  1
  O  O27  1  0.35104150  0.05676750  0.36535600  1
