# generated using pymatgen
data_Li4Mn7O16
_symmetry_space_group_name_H-M   'P 1'
_cell_length_a   9.99211000
_cell_length_b   11.49448000
_cell_length_c   5.22130472
_cell_angle_alpha   90.00000000
_cell_angle_beta   108.78392982
_cell_angle_gamma   90.00000000
_symmetry_Int_Tables_number   1
_chemical_formula_structural   Li4Mn7O16
_chemical_formula_sum   'Li8 Mn14 O32'
_cell_volume   567.74866706
_cell_formula_units_Z   2
loop_
 _symmetry_equiv_pos_site_id
 _symmetry_equiv_pos_as_xyz
  1  'x, y, z'
loop_
 _atom_site_type_symbol
 _atom_site_label
 _atom_site_symmetry_multiplicity
 _atom_site_fract_x
 _atom_site_fract_y
 _atom_site_fract_z
 _atom_site_occupancy
  Li  Li0  1  0.25192400  0.00000000  0.49204100  1
  Li  Li1  1  0.50000000  0.62689600  0.50000000  1
  Li  Li2  1  0.74807600  0.00000000  0.50795900  1
  Li  Li3  1  0.50000000  0.37310400  0.50000000  1
  Li  Li4  1  0.75192400  0.50000000  0.49204100  1
  Li  Li5  1  0.00000000  0.12689600  0.50000000  1
  Li  Li6  1  0.24807600  0.50000000  0.50795900  1
  Li  Li7  1  0.00000000  0.87310400  0.50000000  1
  Mn  Mn8  1  0.24524300  0.87643200  0.00485100  1
  Mn  Mn9  1  0.50000000  0.74507900  0.00000000  1
  Mn  Mn10  1  0.24524300  0.12356800  0.00485100  1
  Mn  Mn11  1  0.50000000  0.00000000  0.00000000  1
  Mn  Mn12  1  0.50000000  0.25492100  0.00000000  1
  Mn  Mn13  1  0.75475700  0.87643200  0.99514900  1
  Mn  Mn14  1  0.75475700  0.12356800  0.99514900  1
  Mn  Mn15  1  0.74524300  0.37643200  0.00485100  1
  Mn  Mn16  1  0.00000000  0.24507900  0.00000000  1
  Mn  Mn17  1  0.74524300  0.62356800  0.00485100  1
  Mn  Mn18  1  0.00000000  0.50000000  0.00000000  1
  Mn  Mn19  1  0.00000000  0.75492100  0.00000000  1
  Mn  Mn20  1  0.25475700  0.37643200  0.99514900  1
  Mn  Mn21  1  0.25475700  0.62356800  0.99514900  1
  O  O22  1  0.37384350  0.63436550  0.78335900  1
  O  O23  1  0.14744800  0.00000000  0.77491600  1
  O  O24  1  0.38218800  0.87729600  0.80382900  1
  O  O25  1  0.36995950  0.74513150  0.20410800  1
  O  O26  1  0.62615650  0.63436550  0.21664100  1
  O  O27  1  0.63004050  0.74513150  0.79589200  1
  O  O28  1  0.36472000  0.00000000  0.20874000  1
  O  O29  1  0.38218800  0.12270400  0.80382900  1
  O  O30  1  0.63528000  0.00000000  0.79126000  1
  O  O31  1  0.61781200  0.87729600  0.19617100  1
  O  O32  1  0.37384350  0.36563450  0.78335900  1
  O  O33  1  0.36995950  0.25486850  0.20410800  1
  O  O34  1  0.63004050  0.25486850  0.79589200  1
  O  O35  1  0.61781200  0.12270400  0.19617100  1
  O  O36  1  0.62615650  0.36563450  0.21664100  1
  O  O37  1  0.85255200  0.00000000  0.22508400  1
  O  O38  1  0.87384350  0.13436550  0.78335900  1
  O  O39  1  0.64744800  0.50000000  0.77491600  1
  O  O40  1  0.88218800  0.37729600  0.80382900  1
  O  O41  1  0.86995950  0.24513150  0.20410800  1
  O  O42  1  0.12615650  0.13436550  0.21664100  1
  O  O43  1  0.13004050  0.24513150  0.79589200  1
  O  O44  1  0.86472000  0.50000000  0.20874000  1
  O  O45  1  0.88218800  0.62270400  0.80382900  1
  O  O46  1  0.13528000  0.50000000  0.79126000  1
  O  O47  1  0.11781200  0.37729600  0.19617100  1
  O  O48  1  0.87384350  0.86563450  0.78335900  1
  O  O49  1  0.86995950  0.75486850  0.20410800  1
  O  O50  1  0.13004050  0.75486850  0.79589200  1
  O  O51  1  0.11781200  0.62270400  0.19617100  1
  O  O52  1  0.12615650  0.86563450  0.21664100  1
  O  O53  1  0.35255200  0.50000000  0.22508400  1
