# generated using pymatgen
data_Li2V4O5F8
_symmetry_space_group_name_H-M   'P 1'
_cell_length_a   12.41760600
_cell_length_b   3.69587200
_cell_length_c   10.57628253
_cell_angle_alpha   90.00000000
_cell_angle_beta   100.87426563
_cell_angle_gamma   90.00000000
_symmetry_Int_Tables_number   1
_chemical_formula_structural   Li2V4O5F8
_chemical_formula_sum   'Li4 V8 O10 F16'
_cell_volume   476.67084254
_cell_formula_units_Z   2
loop_
 _symmetry_equiv_pos_site_id
 _symmetry_equiv_pos_as_xyz
  1  'x, y, z'
loop_
 _atom_site_type_symbol
 _atom_site_label
 _atom_site_symmetry_multiplicity
 _atom_site_fract_x
 _atom_site_fract_y
 _atom_site_fract_z
 _atom_site_occupancy
  Li  Li0  1  0.92005100  0.50000000  0.36523100  1
  Li  Li1  1  0.57994900  0.00000000  0.63476900  1
  Li  Li2  1  0.42005100  0.00000000  0.36523100  1
  Li  Li3  1  0.07994900  0.50000000  0.63476900  1
  V  V4  1  0.85494500  0.50000000  0.00440000  1
  V  V5  1  0.78024900  0.50000000  0.61772700  1
  V  V6  1  0.71975100  0.00000000  0.38227300  1
  V  V7  1  0.64505500  0.00000000  0.99560000  1
  V  V8  1  0.35494500  0.00000000  0.00440000  1
  V  V9  1  0.28024900  0.00000000  0.61772700  1
  V  V10  1  0.21975100  0.50000000  0.38227300  1
  V  V11  1  0.14505500  0.50000000  0.99560000  1
  O  O12  1  0.73629000  0.50000000  0.41436900  1
  O  O13  1  0.68202500  0.50000000  0.00769000  1
  O  O14  1  0.81797500  0.00000000  0.99231000  1
  O  O15  1  0.76371000  0.00000000  0.58563100  1
  O  O16  1  0.00000000  0.50000000  0.00000000  1
  O  O17  1  0.23629000  0.00000000  0.41436900  1
  O  O18  1  0.18202500  0.00000000  0.00769000  1
  O  O19  1  0.31797500  0.50000000  0.99231000  1
  O  O20  1  0.26371000  0.50000000  0.58563100  1
  O  O21  1  0.50000000  0.00000000  0.00000000  1
  F  F22  1  0.88100000  0.50000000  0.18329100  1
  F  F23  1  0.92743400  0.50000000  0.59799900  1
  F  F24  1  0.87411100  0.00000000  0.37659700  1
  F  F25  1  0.81987200  0.50000000  0.79955200  1
  F  F26  1  0.68012800  0.00000000  0.20044800  1
  F  F27  1  0.62588900  0.50000000  0.62340300  1
  F  F28  1  0.57256600  0.00000000  0.40200100  1
  F  F29  1  0.61900000  0.00000000  0.81670900  1
  F  F30  1  0.38100000  0.00000000  0.18329100  1
  F  F31  1  0.42743400  0.00000000  0.59799900  1
  F  F32  1  0.37411100  0.50000000  0.37659700  1
  F  F33  1  0.31987200  0.00000000  0.79955200  1
  F  F34  1  0.18012800  0.50000000  0.20044800  1
  F  F35  1  0.12588900  0.00000000  0.62340300  1
  F  F36  1  0.07256600  0.50000000  0.40200100  1
  F  F37  1  0.11900000  0.50000000  0.81670900  1
