# generated using pymatgen
data_VO2
_symmetry_space_group_name_H-M   'P 1'
_cell_length_a   6.00991642
_cell_length_b   6.00991642
_cell_length_c   8.15484116
_cell_angle_alpha   90.00000000
_cell_angle_beta   90.00000000
_cell_angle_gamma   90.00000000
_symmetry_Int_Tables_number   1
_chemical_formula_structural   VO2
_chemical_formula_sum   'V8 O16'
_cell_volume   294.54548596
_cell_formula_units_Z   8
loop_
 _symmetry_equiv_pos_site_id
 _symmetry_equiv_pos_as_xyz
  1  'x, y, z'
loop_
 _atom_site_type_symbol
 _atom_site_label
 _atom_site_symmetry_multiplicity
 _atom_site_fract_x
 _atom_site_fract_y
 _atom_site_fract_z
 _atom_site_occupancy
  V  V0  1  0.50000000  0.25000000  0.62500000  1
  V  V1  1  0.25000000  0.50000000  0.37500000  1
  V  V2  1  0.25000000  0.00000000  0.87500000  1
  V  V3  1  0.50000000  0.75000000  0.62500000  1
  V  V4  1  0.00000000  0.75000000  0.12500000  1
  V  V5  1  0.75000000  0.00000000  0.87500000  1
  V  V6  1  0.75000000  0.50000000  0.37500000  1
  V  V7  1  0.00000000  0.25000000  0.12500000  1
  O  O8  1  0.00000000  0.77890050  0.89296450  1
  O  O9  1  0.72109950  0.50000000  0.60703550  1
  O  O10  1  0.50000000  0.72109950  0.39296450  1
  O  O11  1  0.27890050  0.50000000  0.60703550  1
  O  O12  1  0.22109950  0.50000000  0.14296450  1
  O  O13  1  0.00000000  0.27890050  0.35703550  1
  O  O14  1  0.77890050  0.50000000  0.14296450  1
  O  O15  1  0.50000000  0.22109950  0.85703550  1
  O  O16  1  0.50000000  0.27890050  0.39296450  1
  O  O17  1  0.22109950  0.00000000  0.10703550  1
  O  O18  1  0.00000000  0.22109950  0.89296450  1
  O  O19  1  0.77890050  0.00000000  0.10703550  1
  O  O20  1  0.72109950  0.00000000  0.64296450  1
  O  O21  1  0.50000000  0.77890050  0.85703550  1
  O  O22  1  0.27890050  0.00000000  0.64296450  1
  O  O23  1  0.00000000  0.72109950  0.35703550  1
