# generated using pymatgen
data_FeOF
_symmetry_space_group_name_H-M   'P 1'
_cell_length_a   9.46062500
_cell_length_b   3.11190300
_cell_length_c   14.24690663
_cell_angle_alpha   90.00000000
_cell_angle_beta   90.05095405
_cell_angle_gamma   90.00000000
_symmetry_Int_Tables_number   1
_chemical_formula_structural   FeOF
_chemical_formula_sum   'Fe12 O12 F12'
_cell_volume   419.43656304
_cell_formula_units_Z   12
loop_
 _symmetry_equiv_pos_site_id
 _symmetry_equiv_pos_as_xyz
  1  'x, y, z'
loop_
 _atom_site_type_symbol
 _atom_site_label
 _atom_site_symmetry_multiplicity
 _atom_site_fract_x
 _atom_site_fract_y
 _atom_site_fract_z
 _atom_site_occupancy
  Fe  Fe0  1  0.01896500  0.00000000  0.99824500  1
  Fe  Fe1  1  0.01261200  0.00000000  0.32859400  1
  Fe  Fe2  1  0.01892600  0.00000000  0.66150700  1
  Fe  Fe3  1  0.22750300  0.50000000  0.16687600  1
  Fe  Fe4  1  0.22811000  0.50000000  0.49384900  1
  Fe  Fe5  1  0.22714100  0.50000000  0.82963900  1
  Fe  Fe6  1  0.51948100  0.00000000  0.32985700  1
  Fe  Fe7  1  0.51535800  0.00000000  0.99564900  1
  Fe  Fe8  1  0.51614800  0.00000000  0.66216400  1
  Fe  Fe9  1  0.76195300  0.50000000  0.18550500  1
  Fe  Fe10  1  0.72967600  0.50000000  0.49694400  1
  Fe  Fe11  1  0.73063800  0.50000000  0.82916500  1
  O  O12  1  0.10022700  0.50000000  0.27055400  1
  O  O13  1  0.09566000  0.50000000  0.60030600  1
  O  O14  1  0.09706100  0.50000000  0.93532900  1
  O  O15  1  0.15243700  0.00000000  0.10184800  1
  O  O16  1  0.15154400  0.00000000  0.76789700  1
  O  O17  1  0.15121300  0.00000000  0.43349900  1
  O  O18  1  0.59541400  0.50000000  0.26603600  1
  O  O19  1  0.60015500  0.50000000  0.93909800  1
  O  O20  1  0.59516000  0.50000000  0.60164700  1
  O  O21  1  0.65128700  0.00000000  0.43494100  1
  O  O22  1  0.64917400  0.00000000  0.76904100  1
  O  O23  1  0.85285000  0.00000000  0.23559100  1
  F  F24  1  0.34779200  0.00000000  0.23285100  1
  F  F25  1  0.34691800  0.00000000  0.56468200  1
  F  F26  1  0.34976000  0.00000000  0.90065000  1
  F  F27  1  0.40797200  0.50000000  0.06752900  1
  F  F28  1  0.40187500  0.50000000  0.39780500  1
  F  F29  1  0.39955800  0.50000000  0.73258500  1
  F  F30  1  0.65556500  0.00000000  0.10359100  1
  F  F31  1  0.84699400  0.00000000  0.89828400  1
  F  F32  1  0.84573800  0.00000000  0.56755700  1
  F  F33  1  0.89713900  0.50000000  0.06330800  1
  F  F34  1  0.90122700  0.50000000  0.40464800  1
  F  F35  1  0.90076500  0.50000000  0.73272900  1
