# generated using pymatgen
data_Li2MnCo3O8
_symmetry_space_group_name_H-M   'P 1'
_cell_length_a   11.47596800
_cell_length_b   11.49079000
_cell_length_c   8.11786782
_cell_angle_alpha   90.00000000
_cell_angle_beta   90.14168917
_cell_angle_gamma   90.00000000
_symmetry_Int_Tables_number   1
_chemical_formula_structural   Li2MnCo3O8
_chemical_formula_sum   'Li16 Mn8 Co24 O64'
_cell_volume   1070.48322013
_cell_formula_units_Z   8
loop_
 _symmetry_equiv_pos_site_id
 _symmetry_equiv_pos_as_xyz
  1  'x, y, z'
loop_
 _atom_site_type_symbol
 _atom_site_label
 _atom_site_symmetry_multiplicity
 _atom_site_fract_x
 _atom_site_fract_y
 _atom_site_fract_z
 _atom_site_occupancy
  Li  Li0  1  0.12686200  0.87571700  0.87177300  1
  Li  Li1  1  0.87313800  0.87571700  0.12822700  1
  Li  Li2  1  0.37621450  0.87116650  0.12200700  1
  Li  Li3  1  0.37421300  0.12910800  0.37724700  1
  Li  Li4  1  0.87151900  0.12547300  0.37099800  1
  Li  Li5  1  0.12848100  0.12547300  0.62900200  1
  Li  Li6  1  0.62578700  0.12910800  0.62275300  1
  Li  Li7  1  0.62378550  0.87116650  0.87799300  1
  Li  Li8  1  0.62686200  0.37571700  0.87177300  1
  Li  Li9  1  0.37313800  0.37571700  0.12822700  1
  Li  Li10  1  0.87621450  0.37116650  0.12200700  1
  Li  Li11  1  0.87421300  0.62910800  0.37724700  1
  Li  Li12  1  0.37151900  0.62547300  0.37099800  1
  Li  Li13  1  0.62848100  0.62547300  0.62900200  1
  Li  Li14  1  0.12578700  0.62910800  0.62275300  1
  Li  Li15  1  0.12378550  0.37116650  0.87799300  1
  Mn  Mn16  1  0.50000000  0.12521400  0.00000000  1
  Mn  Mn17  1  0.12376350  0.00276950  0.24600100  1
  Mn  Mn18  1  0.50000000  0.87444800  0.50000000  1
  Mn  Mn19  1  0.87623650  0.00276950  0.75399900  1
  Mn  Mn20  1  0.00000000  0.62521400  0.00000000  1
  Mn  Mn21  1  0.62376350  0.50276950  0.24600100  1
  Mn  Mn22  1  0.00000000  0.37444800  0.50000000  1
  Mn  Mn23  1  0.37623650  0.50276950  0.75399900  1
  Co  Co24  1  0.24965750  0.12602050  0.00043900  1
  Co  Co25  1  0.50000000  0.62563700  0.00000000  1
  Co  Co26  1  0.75034250  0.12602050  0.99956100  1
  Co  Co27  1  0.62488400  0.75028500  0.24897500  1
  Co  Co28  1  0.62478750  0.99964350  0.24970000  1
  Co  Co29  1  0.62525900  0.24996400  0.24954100  1
  Co  Co30  1  0.75084100  0.87503000  0.50012600  1
  Co  Co31  1  0.50000000  0.37554700  0.50000000  1
  Co  Co32  1  0.24915900  0.87503000  0.49987400  1
  Co  Co33  1  0.37474100  0.24996400  0.75045900  1
  Co  Co34  1  0.37521250  0.99964350  0.75030000  1
  Co  Co35  1  0.37511600  0.75028500  0.75102500  1
  Co  Co36  1  0.74965750  0.62602050  0.00043900  1
  Co  Co37  1  0.00000000  0.12563700  0.00000000  1
  Co  Co38  1  0.25034250  0.62602050  0.99956100  1
  Co  Co39  1  0.12488400  0.25028500  0.24897500  1
  Co  Co40  1  0.12478750  0.49964350  0.24970000  1
  Co  Co41  1  0.12525900  0.74996400  0.24954100  1
  Co  Co42  1  0.25084100  0.37503000  0.50012600  1
  Co  Co43  1  0.00000000  0.87554700  0.50000000  1
  Co  Co44  1  0.74915900  0.37503000  0.49987400  1
  Co  Co45  1  0.87474100  0.74996400  0.75045900  1
  Co  Co46  1  0.87521250  0.49964350  0.75030000  1
  Co  Co47  1  0.87511600  0.25028500  0.75102500  1
  O  O48  1  0.37506000  0.23719300  0.98848900  1
  O  O49  1  0.37527150  0.01049350  0.98341700  1
  O  O50  1  0.37496250  0.73530750  0.98513200  1
  O  O51  1  0.12577500  0.01190200  0.01295500  1
  O  O52  1  0.87422500  0.01190200  0.98704500  1
  O  O53  1  0.62503750  0.73530750  0.01486800  1
  O  O54  1  0.62472850  0.01049350  0.01658300  1
  O  O55  1  0.62494000  0.23719300  0.01151100  1
  O  O56  1  0.23702450  0.12524350  0.23824300  1
  O  O57  1  0.51222300  0.62518000  0.23854000  1
  O  O58  1  0.73266650  0.12713750  0.23522900  1
  O  O59  1  0.51253150  0.87496450  0.26346700  1
  O  O60  1  0.51386850  0.12768550  0.23868300  1
  O  O61  1  0.73539850  0.87584550  0.26686500  1
  O  O62  1  0.51500300  0.37305800  0.26362900  1
  O  O63  1  0.23729700  0.87214900  0.26630900  1
  O  O64  1  0.62663850  0.76370450  0.49067100  1
  O  O65  1  0.62565850  0.98675950  0.48680300  1
  O  O66  1  0.62541200  0.26522000  0.48399100  1
  O  O67  1  0.87192200  0.98582800  0.51102200  1
  O  O68  1  0.12807800  0.98582800  0.48897800  1
  O  O69  1  0.37458800  0.26522000  0.51600900  1
  O  O70  1  0.37434150  0.98675950  0.51319700  1
  O  O71  1  0.37336150  0.76370450  0.50932900  1
  O  O72  1  0.76270300  0.87214900  0.73369100  1
  O  O73  1  0.48499700  0.37305800  0.73637100  1
  O  O74  1  0.26460150  0.87584550  0.73313500  1
  O  O75  1  0.48613150  0.12768550  0.76131700  1
  O  O76  1  0.48746850  0.87496450  0.73653300  1
  O  O77  1  0.26733350  0.12713750  0.76477100  1
  O  O78  1  0.48777700  0.62518000  0.76146000  1
  O  O79  1  0.76297550  0.12524350  0.76175700  1
  O  O80  1  0.87506000  0.73719300  0.98848900  1
  O  O81  1  0.87527150  0.51049350  0.98341700  1
  O  O82  1  0.87496250  0.23530750  0.98513200  1
  O  O83  1  0.62577500  0.51190200  0.01295500  1
  O  O84  1  0.37422500  0.51190200  0.98704500  1
  O  O85  1  0.12503750  0.23530750  0.01486800  1
  O  O86  1  0.12472850  0.51049350  0.01658300  1
  O  O87  1  0.12494000  0.73719300  0.01151100  1
  O  O88  1  0.73702450  0.62524350  0.23824300  1
  O  O89  1  0.01222300  0.12518000  0.23854000  1
  O  O90  1  0.23266650  0.62713750  0.23522900  1
  O  O91  1  0.01253150  0.37496450  0.26346700  1
  O  O92  1  0.01386850  0.62768550  0.23868300  1
  O  O93  1  0.23539850  0.37584550  0.26686500  1
  O  O94  1  0.01500300  0.87305800  0.26362900  1
  O  O95  1  0.73729700  0.37214900  0.26630900  1
  O  O96  1  0.12663850  0.26370450  0.49067100  1
  O  O97  1  0.12565850  0.48675950  0.48680300  1
  O  O98  1  0.12541200  0.76522000  0.48399100  1
  O  O99  1  0.37192200  0.48582800  0.51102200  1
  O  O100  1  0.62807800  0.48582800  0.48897800  1
  O  O101  1  0.87458800  0.76522000  0.51600900  1
  O  O102  1  0.87434150  0.48675950  0.51319700  1
  O  O103  1  0.87336150  0.26370450  0.50932900  1
  O  O104  1  0.26270300  0.37214900  0.73369100  1
  O  O105  1  0.98499700  0.87305800  0.73637100  1
  O  O106  1  0.76460150  0.37584550  0.73313500  1
  O  O107  1  0.98613150  0.62768550  0.76131700  1
  O  O108  1  0.98746850  0.37496450  0.73653300  1
  O  O109  1  0.76733350  0.62713750  0.76477100  1
  O  O110  1  0.98777700  0.12518000  0.76146000  1
  O  O111  1  0.26297550  0.62524350  0.76175700  1
