# generated using pymatgen
data_Li2FeF4
_symmetry_space_group_name_H-M   'P 1'
_cell_length_a   4.88630200
_cell_length_b   4.88630200
_cell_length_c   8.35614200
_cell_angle_alpha   90.00000000
_cell_angle_beta   90.00000000
_cell_angle_gamma   90.00000000
_symmetry_Int_Tables_number   1
_chemical_formula_structural   Li2FeF4
_chemical_formula_sum   'Li4 Fe2 F8'
_cell_volume   199.51080548
_cell_formula_units_Z   2
loop_
 _symmetry_equiv_pos_site_id
 _symmetry_equiv_pos_as_xyz
  1  'x, y, z'
loop_
 _atom_site_type_symbol
 _atom_site_label
 _atom_site_symmetry_multiplicity
 _atom_site_fract_x
 _atom_site_fract_y
 _atom_site_fract_z
 _atom_site_occupancy
  Li  Li0  1  0.50000000  0.50000000  0.00000000  1
  Li  Li1  1  0.50000000  0.00000000  0.25000000  1
  Li  Li2  1  0.00000000  0.00000000  0.50000000  1
  Li  Li3  1  0.00000000  0.50000000  0.75000000  1
  Fe  Fe4  1  0.00000000  0.00000000  0.00000000  1
  Fe  Fe5  1  0.50000000  0.50000000  0.50000000  1
  F  F6  1  0.28106850  0.79487950  0.39220450  1
  F  F7  1  0.70512050  0.78106850  0.10779550  1
  F  F8  1  0.71893150  0.20512050  0.39220450  1
  F  F9  1  0.29487950  0.21893150  0.10779550  1
  F  F10  1  0.78106850  0.29487950  0.89220450  1
  F  F11  1  0.20512050  0.28106850  0.60779550  1
  F  F12  1  0.21893150  0.70512050  0.89220450  1
  F  F13  1  0.79487950  0.71893150  0.60779550  1
