# generated using pymatgen
data_Co6O7F5
_symmetry_space_group_name_H-M   'P 1'
_cell_length_a   9.01280000
_cell_length_b   6.21164800
_cell_length_c   7.50769461
_cell_angle_alpha   90.00000000
_cell_angle_beta   114.44145555
_cell_angle_gamma   90.00000000
_symmetry_Int_Tables_number   1
_chemical_formula_structural   Co6O7F5
_chemical_formula_sum   'Co12 O14 F10'
_cell_volume   382.64675712
_cell_formula_units_Z   2
loop_
 _symmetry_equiv_pos_site_id
 _symmetry_equiv_pos_as_xyz
  1  'x, y, z'
loop_
 _atom_site_type_symbol
 _atom_site_label
 _atom_site_symmetry_multiplicity
 _atom_site_fract_x
 _atom_site_fract_y
 _atom_site_fract_z
 _atom_site_occupancy
  Co  Co0  1  0.81219700  0.49150400  0.85458100  1
  Co  Co1  1  0.83603300  0.49430600  0.32780300  1
  Co  Co2  1  0.16396700  0.49430600  0.67219700  1
  Co  Co3  1  0.18780300  0.49150400  0.14541900  1
  Co  Co4  1  0.00000000  0.99634000  0.50000000  1
  Co  Co5  1  0.00000000  0.01978700  0.00000000  1
  Co  Co6  1  0.31219700  0.99150400  0.85458100  1
  Co  Co7  1  0.33603300  0.99430600  0.32780300  1
  Co  Co8  1  0.66396700  0.99430600  0.67219700  1
  Co  Co9  1  0.68780300  0.99150400  0.14541900  1
  Co  Co10  1  0.50000000  0.49634000  0.50000000  1
  Co  Co11  1  0.50000000  0.51978700  0.00000000  1
  O  O12  1  0.84100750  0.19474450  0.33045100  1
  O  O13  1  0.15899250  0.19474450  0.66954900  1
  O  O14  1  0.27771800  0.50616900  0.96491800  1
  O  O15  1  0.72228200  0.50616900  0.03508200  1
  O  O16  1  0.84084700  0.79778400  0.33259100  1
  O  O17  1  0.15915300  0.79778400  0.66740900  1
  O  O18  1  0.00000000  0.31707500  0.00000000  1
  O  O19  1  0.34100750  0.69474450  0.33045100  1
  O  O20  1  0.65899250  0.69474450  0.66954900  1
  O  O21  1  0.77771800  0.00616900  0.96491800  1
  O  O22  1  0.22228200  0.00616900  0.03508200  1
  O  O23  1  0.34084700  0.29778400  0.33259100  1
  O  O24  1  0.65915300  0.29778400  0.66740900  1
  O  O25  1  0.50000000  0.81707500  0.00000000  1
  F  F26  1  0.92736650  0.49873150  0.62863400  1
  F  F27  1  0.60551100  0.49803400  0.29905900  1
  F  F28  1  0.07263350  0.49873150  0.37136600  1
  F  F29  1  0.39448900  0.49803400  0.70094100  1
  F  F30  1  0.00000000  0.70425200  0.00000000  1
  F  F31  1  0.42736650  0.99873150  0.62863400  1
  F  F32  1  0.10551100  0.99803400  0.29905900  1
  F  F33  1  0.57263350  0.99873150  0.37136600  1
  F  F34  1  0.89448900  0.99803400  0.70094100  1
  F  F35  1  0.50000000  0.20425200  0.00000000  1
