# generated using pymatgen
data_LiV2NiO6
_symmetry_space_group_name_H-M   'P 1'
_cell_length_a   10.23085000
_cell_length_b   9.06531200
_cell_length_c   5.73678302
_cell_angle_alpha   90.00000000
_cell_angle_beta   110.81858456
_cell_angle_gamma   90.00000000
_symmetry_Int_Tables_number   1
_chemical_formula_structural   LiV2NiO6
_chemical_formula_sum   'Li4 V8 Ni4 O24'
_cell_volume   497.32465738
_cell_formula_units_Z   4
loop_
 _symmetry_equiv_pos_site_id
 _symmetry_equiv_pos_as_xyz
  1  'x, y, z'
loop_
 _atom_site_type_symbol
 _atom_site_label
 _atom_site_symmetry_multiplicity
 _atom_site_fract_x
 _atom_site_fract_y
 _atom_site_fract_z
 _atom_site_occupancy
  Li  Li0  1  0.00000000  0.24649800  0.25000000  1
  Li  Li1  1  0.00000000  0.75350200  0.75000000  1
  Li  Li2  1  0.50000000  0.74649800  0.25000000  1
  Li  Li3  1  0.50000000  0.25350200  0.75000000  1
  V  V4  1  0.20600000  0.40210400  0.73390800  1
  V  V5  1  0.20600000  0.59789600  0.23390800  1
  V  V6  1  0.79400000  0.40210400  0.76609200  1
  V  V7  1  0.79400000  0.59789600  0.26609200  1
  V  V8  1  0.70600000  0.90210400  0.73390800  1
  V  V9  1  0.70600000  0.09789600  0.23390800  1
  V  V10  1  0.29400000  0.90210400  0.76609200  1
  V  V11  1  0.29400000  0.09789600  0.26609200  1
  Ni  Ni12  1  0.00000000  0.08376800  0.75000000  1
  Ni  Ni13  1  0.00000000  0.91623200  0.25000000  1
  Ni  Ni14  1  0.50000000  0.58376800  0.75000000  1
  Ni  Ni15  1  0.50000000  0.41623200  0.25000000  1
  O  O16  1  0.39065500  0.40783000  0.85456600  1
  O  O17  1  0.13240600  0.22854400  0.67827100  1
  O  O18  1  0.39065500  0.59217000  0.35456600  1
  O  O19  1  0.13879400  0.50812900  0.93337900  1
  O  O20  1  0.86759400  0.22854400  0.82172900  1
  O  O21  1  0.13879400  0.49187100  0.43337900  1
  O  O22  1  0.86120600  0.50812900  0.56662100  1
  O  O23  1  0.13240600  0.77145600  0.17827100  1
  O  O24  1  0.86120600  0.49187100  0.06662100  1
  O  O25  1  0.60934500  0.40783000  0.64543400  1
  O  O26  1  0.86759400  0.77145600  0.32172900  1
  O  O27  1  0.60934500  0.59217000  0.14543400  1
  O  O28  1  0.89065500  0.90783000  0.85456600  1
  O  O29  1  0.63240600  0.72854400  0.67827100  1
  O  O30  1  0.89065500  0.09217000  0.35456600  1
  O  O31  1  0.63879400  0.00812900  0.93337900  1
  O  O32  1  0.36759400  0.72854400  0.82172900  1
  O  O33  1  0.63879400  0.99187100  0.43337900  1
  O  O34  1  0.36120600  0.00812900  0.56662100  1
  O  O35  1  0.63240600  0.27145600  0.17827100  1
  O  O36  1  0.36120600  0.99187100  0.06662100  1
  O  O37  1  0.10934500  0.90783000  0.64543400  1
  O  O38  1  0.36759400  0.27145600  0.32172900  1
  O  O39  1  0.10934500  0.09217000  0.14543400  1
