# generated using pymatgen
data_Na2V6O15
_symmetry_space_group_name_H-M   'P 1'
_cell_length_a   15.78453200
_cell_length_b   3.66622000
_cell_length_c   10.61821322
_cell_angle_alpha   90.00000000
_cell_angle_beta   103.09322497
_cell_angle_gamma   90.00000000
_symmetry_Int_Tables_number   1
_chemical_formula_structural   Na2V6O15
_chemical_formula_sum   'Na4 V12 O30'
_cell_volume   598.49684093
_cell_formula_units_Z   2
loop_
 _symmetry_equiv_pos_site_id
 _symmetry_equiv_pos_as_xyz
  1  'x, y, z'
loop_
 _atom_site_type_symbol
 _atom_site_label
 _atom_site_symmetry_multiplicity
 _atom_site_fract_x
 _atom_site_fract_y
 _atom_site_fract_z
 _atom_site_occupancy
  Na  Na0  1  0.54520900  0.00000000  0.34659100  1
  Na  Na1  1  0.96013600  0.50000000  0.65413000  1
  Na  Na2  1  0.04520900  0.50000000  0.34659100  1
  Na  Na3  1  0.46013600  0.00000000  0.65413000  1
  V  V4  1  0.67769400  0.00000000  0.90413400  1
  V  V5  1  0.60647000  0.50000000  0.09864100  1
  V  V6  1  0.71892500  0.00000000  0.59390300  1
  V  V7  1  0.78646800  0.50000000  0.40524900  1
  V  V8  1  0.88389800  0.00000000  0.88999000  1
  V  V9  1  0.82782800  0.50000000  0.10222000  1
  V  V10  1  0.17769400  0.50000000  0.90413400  1
  V  V11  1  0.10647000  0.00000000  0.09864100  1
  V  V12  1  0.21892500  0.50000000  0.59390300  1
  V  V13  1  0.28646800  0.00000000  0.40524900  1
  V  V14  1  0.38389800  0.50000000  0.88999000  1
  V  V15  1  0.32782800  0.00000000  0.10222000  1
  O  O16  1  0.58226800  0.00000000  0.80622500  1
  O  O17  1  0.69048800  0.50000000  0.95934500  1
  O  O18  1  0.61113400  0.00000000  0.55707100  1
  O  O19  1  0.59578400  0.50000000  0.25145800  1
  O  O20  1  0.74917900  0.00000000  0.79151900  1
  O  O21  1  0.63526100  0.00000000  0.07391500  1
  O  O22  1  0.75889400  0.50000000  0.57814600  1
  O  O23  1  0.75083400  0.00000000  0.41667700  1
  O  O24  1  0.87313600  0.50000000  0.92977200  1
  O  O25  1  0.76145300  0.50000000  0.21922500  1
  O  O26  1  0.90767800  0.00000000  0.74512700  1
  O  O27  1  0.89367800  0.50000000  0.44125900  1
  O  O28  1  0.81264600  0.00000000  0.04676400  1
  O  O29  1  0.92476700  0.50000000  0.19576000  1
  O  O30  1  0.50278600  0.50000000  0.00174900  1
  O  O31  1  0.08226800  0.50000000  0.80622500  1
  O  O32  1  0.19048800  0.00000000  0.95934500  1
  O  O33  1  0.11113400  0.50000000  0.55707100  1
  O  O34  1  0.09578400  0.00000000  0.25145800  1
  O  O35  1  0.24917900  0.50000000  0.79151900  1
  O  O36  1  0.13526100  0.50000000  0.07391500  1
  O  O37  1  0.25889400  0.00000000  0.57814600  1
  O  O38  1  0.25083400  0.50000000  0.41667700  1
  O  O39  1  0.37313600  0.00000000  0.92977200  1
  O  O40  1  0.26145300  0.00000000  0.21922500  1
  O  O41  1  0.40767800  0.50000000  0.74512700  1
  O  O42  1  0.39367800  0.00000000  0.44125900  1
  O  O43  1  0.31264600  0.50000000  0.04676400  1
  O  O44  1  0.42476700  0.00000000  0.19576000  1
  O  O45  1  0.00278600  0.00000000  0.00174900  1
