# generated using pymatgen
data_V2OF5
_symmetry_space_group_name_H-M   'P 1'
_cell_length_a   9.15430800
_cell_length_b   5.26783400
_cell_length_c   9.54943238
_cell_angle_alpha   90.00000000
_cell_angle_beta   109.24616450
_cell_angle_gamma   90.00000000
_symmetry_Int_Tables_number   1
_chemical_formula_structural   V2OF5
_chemical_formula_sum   'V8 O4 F20'
_cell_volume   434.76868693
_cell_formula_units_Z   4
loop_
 _symmetry_equiv_pos_site_id
 _symmetry_equiv_pos_as_xyz
  1  'x, y, z'
loop_
 _atom_site_type_symbol
 _atom_site_label
 _atom_site_symmetry_multiplicity
 _atom_site_fract_x
 _atom_site_fract_y
 _atom_site_fract_z
 _atom_site_occupancy
  V  V0  1  0.38632300  0.35315400  0.13233400  1
  V  V1  1  0.62216750  0.88109250  0.37159200  1
  V  V2  1  0.37783250  0.88109250  0.62840800  1
  V  V3  1  0.61367700  0.35315400  0.86766600  1
  V  V4  1  0.88632300  0.85315400  0.13233400  1
  V  V5  1  0.12216750  0.38109250  0.37159200  1
  V  V6  1  0.87783250  0.38109250  0.62840800  1
  V  V7  1  0.11367700  0.85315400  0.86766600  1
  O  O8  1  0.53008500  0.17124800  0.24242400  1
  O  O9  1  0.46991500  0.17124800  0.75757600  1
  O  O10  1  0.03008500  0.67124800  0.24242400  1
  O  O11  1  0.96991500  0.67124800  0.75757600  1
  F  F12  1  0.70251400  0.57911100  0.50094100  1
  F  F13  1  0.00000000  0.96822300  0.00000000  1
  F  F14  1  0.75474800  0.28450100  0.75586300  1
  F  F15  1  0.45015450  0.66870450  0.24812100  1
  F  F16  1  0.29748600  0.57911100  0.49905900  1
  F  F17  1  0.78597050  0.57957850  0.99434000  1
  F  F18  1  0.50000000  0.97215000  0.50000000  1
  F  F19  1  0.21402950  0.57957850  0.00566000  1
  F  F20  1  0.24525200  0.28450100  0.24413700  1
  F  F21  1  0.54984550  0.66870450  0.75187900  1
  F  F22  1  0.20251400  0.07911100  0.50094100  1
  F  F23  1  0.50000000  0.46822300  0.00000000  1
  F  F24  1  0.25474800  0.78450100  0.75586300  1
  F  F25  1  0.95015450  0.16870450  0.24812100  1
  F  F26  1  0.79748600  0.07911100  0.49905900  1
  F  F27  1  0.28597050  0.07957850  0.99434000  1
  F  F28  1  0.00000000  0.47215000  0.50000000  1
  F  F29  1  0.71402950  0.07957850  0.00566000  1
  F  F30  1  0.74525200  0.78450100  0.24413700  1
  F  F31  1  0.04984550  0.16870450  0.75187900  1
