# generated using pymatgen
data_LiV2F5
_symmetry_space_group_name_H-M   'P 1'
_cell_length_a   10.77080200
_cell_length_b   5.30899200
_cell_length_c   7.75183571
_cell_angle_alpha   90.00000000
_cell_angle_beta   113.59779056
_cell_angle_gamma   90.00000000
_symmetry_Int_Tables_number   1
_chemical_formula_structural   LiV2F5
_chemical_formula_sum   'Li4 V8 F20'
_cell_volume   406.19952066
_cell_formula_units_Z   4
loop_
 _symmetry_equiv_pos_site_id
 _symmetry_equiv_pos_as_xyz
  1  'x, y, z'
loop_
 _atom_site_type_symbol
 _atom_site_label
 _atom_site_symmetry_multiplicity
 _atom_site_fract_x
 _atom_site_fract_y
 _atom_site_fract_z
 _atom_site_occupancy
  Li  Li0  1  0.00000000  0.00000000  0.00000000  1
  Li  Li1  1  0.00000000  0.00000000  0.50000000  1
  Li  Li2  1  0.50000000  0.50000000  0.00000000  1
  Li  Li3  1  0.50000000  0.50000000  0.50000000  1
  V  V4  1  0.37667950  0.99750350  0.28547400  1
  V  V5  1  0.37667950  0.00249650  0.78547400  1
  V  V6  1  0.12332050  0.49750350  0.21452600  1
  V  V7  1  0.12332050  0.50249650  0.71452600  1
  V  V8  1  0.87667950  0.49750350  0.28547400  1
  V  V9  1  0.87667950  0.50249650  0.78547400  1
  V  V10  1  0.62332050  0.99750350  0.21452600  1
  V  V11  1  0.62332050  0.00249650  0.71452600  1
  F  F12  1  0.00000000  0.20402600  0.75000000  1
  F  F13  1  0.41747000  0.83939300  0.05548100  1
  F  F14  1  0.18503300  0.84876800  0.64991000  1
  F  F15  1  0.18503300  0.15123200  0.14991000  1
  F  F16  1  0.41747000  0.16060700  0.55548100  1
  F  F17  1  0.00000000  0.79597400  0.25000000  1
  F  F18  1  0.08253000  0.33939300  0.44451900  1
  F  F19  1  0.31496700  0.34876800  0.85009000  1
  F  F20  1  0.31496700  0.65123200  0.35009000  1
  F  F21  1  0.08253000  0.66060700  0.94451900  1
  F  F22  1  0.50000000  0.70402600  0.75000000  1
  F  F23  1  0.91747000  0.33939300  0.05548100  1
  F  F24  1  0.68503300  0.34876800  0.64991000  1
  F  F25  1  0.68503300  0.65123200  0.14991000  1
  F  F26  1  0.91747000  0.66060700  0.55548100  1
  F  F27  1  0.50000000  0.29597400  0.25000000  1
  F  F28  1  0.58253000  0.83939300  0.44451900  1
  F  F29  1  0.81496700  0.84876800  0.85009000  1
  F  F30  1  0.81496700  0.15123200  0.35009000  1
  F  F31  1  0.58253000  0.16060700  0.94451900  1
