# generated using pymatgen
data_Li2La3Ti2Nb2O13
_symmetry_space_group_name_H-M   'P 1'
_cell_length_a   33.95852000
_cell_length_b   4.01138800
_cell_length_c   4.01302839
_cell_angle_alpha   90.00000000
_cell_angle_beta   96.64482977
_cell_angle_gamma   90.00000000
_symmetry_Int_Tables_number   1
_chemical_formula_structural   Li2La3Ti2Nb2O13
_chemical_formula_sum   'Li4 La6 Ti4 Nb4 O26'
_cell_volume   542.98577899
_cell_formula_units_Z   2
loop_
 _symmetry_equiv_pos_site_id
 _symmetry_equiv_pos_as_xyz
  1  'x, y, z'
loop_
 _atom_site_type_symbol
 _atom_site_label
 _atom_site_symmetry_multiplicity
 _atom_site_fract_x
 _atom_site_fract_y
 _atom_site_fract_z
 _atom_site_occupancy
  Li  Li0  1  0.25462600  0.50000000  0.25646200  1
  Li  Li1  1  0.25436700  0.00000000  0.75185500  1
  Li  Li2  1  0.75462600  0.00000000  0.25646200  1
  Li  Li3  1  0.75436700  0.50000000  0.75185500  1
  La  La4  1  0.00394900  0.50000000  0.51158400  1
  La  La5  1  0.38474800  0.00000000  0.36946400  1
  La  La6  1  0.12389400  0.50000000  0.62358900  1
  La  La7  1  0.50394900  0.00000000  0.51158400  1
  La  La8  1  0.88474800  0.50000000  0.36946400  1
  La  La9  1  0.62389400  0.00000000  0.62358900  1
  Ti  Ti10  1  0.44601500  0.50000000  0.94268500  1
  Ti  Ti11  1  0.06233800  0.00000000  0.06111100  1
  Ti  Ti12  1  0.94601500  0.00000000  0.94268500  1
  Ti  Ti13  1  0.56233800  0.50000000  0.06111100  1
  Nb  Nb14  1  0.32513600  0.50000000  0.81942600  1
  Nb  Nb15  1  0.18377900  0.00000000  0.18328200  1
  Nb  Nb16  1  0.82513600  0.00000000  0.81942600  1
  Nb  Nb17  1  0.68377900  0.50000000  0.18328200  1
  O  O18  1  0.00418200  0.00000000  0.99625600  1
  O  O19  1  0.44684200  0.50000000  0.44304100  1
  O  O20  1  0.44597600  0.00000000  0.94258600  1
  O  O21  1  0.38785700  0.50000000  0.88768400  1
  O  O22  1  0.33348100  0.50000000  0.32883100  1
  O  O23  1  0.33414700  0.00000000  0.82647600  1
  O  O24  1  0.26854000  0.50000000  0.76908700  1
  O  O25  1  0.24032300  0.00000000  0.24240200  1
  O  O26  1  0.17493500  0.50000000  0.17291200  1
  O  O27  1  0.17491900  0.00000000  0.67505300  1
  O  O28  1  0.12069500  0.00000000  0.12408200  1
  O  O29  1  0.06219100  0.50000000  0.05973200  1
  O  O30  1  0.06158800  0.00000000  0.56027100  1
  O  O31  1  0.50418200  0.50000000  0.99625600  1
  O  O32  1  0.94684200  0.00000000  0.44304100  1
  O  O33  1  0.94597600  0.50000000  0.94258600  1
  O  O34  1  0.88785700  0.00000000  0.88768400  1
  O  O35  1  0.83348100  0.00000000  0.32883100  1
  O  O36  1  0.83414700  0.50000000  0.82647600  1
  O  O37  1  0.76854000  0.00000000  0.76908700  1
  O  O38  1  0.74032300  0.50000000  0.24240200  1
  O  O39  1  0.67493500  0.00000000  0.17291200  1
  O  O40  1  0.67491900  0.50000000  0.67505300  1
  O  O41  1  0.62069500  0.50000000  0.12408200  1
  O  O42  1  0.56219100  0.00000000  0.05973200  1
  O  O43  1  0.56158800  0.50000000  0.56027100  1
