# generated using pymatgen
data_TiFe3Cu2(PO4)6
_symmetry_space_group_name_H-M   'P 1'
_cell_length_a   8.62180028
_cell_length_b   8.62180028
_cell_length_c   20.83942550
_cell_angle_alpha   90.00000000
_cell_angle_beta   90.00000000
_cell_angle_gamma   120.00000000
_symmetry_Int_Tables_number   1
_chemical_formula_structural   TiFe3Cu2(PO4)6
_chemical_formula_sum   'Ti3 Fe9 Cu6 P18 O72'
_cell_volume   1341.56676561
_cell_formula_units_Z   3
loop_
 _symmetry_equiv_pos_site_id
 _symmetry_equiv_pos_as_xyz
  1  'x, y, z'
loop_
 _atom_site_type_symbol
 _atom_site_label
 _atom_site_symmetry_multiplicity
 _atom_site_fract_x
 _atom_site_fract_y
 _atom_site_fract_z
 _atom_site_occupancy
  Ti  Ti0  1  0.33333333  0.66666667  0.52295667  1
  Ti  Ti1  1  0.00000000  0.00000000  0.85629000  1
  Ti  Ti2  1  0.66666667  0.33333333  0.18962333  1
  Fe  Fe3  1  0.33333333  0.66666667  0.81112367  1
  Fe  Fe4  1  0.33333333  0.66666667  0.02286867  1
  Fe  Fe5  1  0.33333333  0.66666667  0.31076167  1
  Fe  Fe6  1  0.00000000  0.00000000  0.14445700  1
  Fe  Fe7  1  0.00000000  0.00000000  0.35620200  1
  Fe  Fe8  1  0.00000000  0.00000000  0.64409500  1
  Fe  Fe9  1  0.66666667  0.33333333  0.47779033  1
  Fe  Fe10  1  0.66666667  0.33333333  0.68953533  1
  Fe  Fe11  1  0.66666667  0.33333333  0.97742833  1
  Cu  Cu12  1  0.33333333  0.66666667  0.66743267  1
  Cu  Cu13  1  0.33333333  0.66666667  0.16726467  1
  Cu  Cu14  1  0.00000000  0.00000000  0.00076600  1
  Cu  Cu15  1  0.00000000  0.00000000  0.50059800  1
  Cu  Cu16  1  0.66666667  0.33333333  0.33409933  1
  Cu  Cu17  1  0.66666667  0.33333333  0.83393133  1
  P  P18  1  0.37187233  0.03832667  0.08291567  1
  P  P19  1  0.66645433  0.62812767  0.08291567  1
  P  P20  1  0.96167333  0.33354567  0.08291567  1
  P  P21  1  0.29339700  0.29423500  0.24997400  1
  P  P22  1  0.70576500  0.99916200  0.24997400  1
  P  P23  1  0.00083800  0.70660300  0.24997400  1
  P  P24  1  0.03853900  0.37166000  0.41624900  1
  P  P25  1  0.33312100  0.96146100  0.41624900  1
  P  P26  1  0.62834000  0.66687900  0.41624900  1
  P  P27  1  0.96006367  0.62756833  0.58330733  1
  P  P28  1  0.37243167  0.33249533  0.58330733  1
  P  P29  1  0.66750467  0.03993633  0.58330733  1
  P  P30  1  0.70520567  0.70499333  0.74958233  1
  P  P31  1  0.99978767  0.29479433  0.74958233  1
  P  P32  1  0.29500667  0.00021233  0.74958233  1
  P  P33  1  0.62673033  0.96090167  0.91664067  1
  P  P34  1  0.03909833  0.66582867  0.91664067  1
  P  P35  1  0.33417133  0.37326967  0.91664067  1
  O  O36  1  0.33560100  0.47089500  0.97765800  1
  O  O37  1  0.52910500  0.86470600  0.97765800  1
  O  O38  1  0.83462600  0.81773000  0.07705300  1
  O  O39  1  0.13529400  0.66439900  0.97765800  1
  O  O40  1  0.33972867  0.85847233  0.47638333  1
  O  O41  1  0.49563267  0.64411733  0.09176033  1
  O  O42  1  0.98310400  0.16537400  0.07705300  1
  O  O43  1  0.14848467  0.50436733  0.09176033  1
  O  O44  1  0.19823233  0.19422367  0.18913967  1
  O  O45  1  0.35588267  0.85151533  0.09176033  1
  O  O46  1  0.48568200  0.31689800  0.25552800  1
  O  O47  1  0.80577633  0.00400867  0.18913967  1
  O  O48  1  0.51874367  0.66027133  0.47638333  1
  O  O49  1  0.18227000  0.01689600  0.07705300  1
  O  O50  1  0.31650967  0.48528533  0.24311633  1
  O  O51  1  0.14152767  0.48125633  0.47638333  1
  O  O52  1  0.51471467  0.83122433  0.24311633  1
  O  O53  1  0.68310200  0.16878400  0.25552800  1
  O  O54  1  0.16877567  0.68349033  0.24311633  1
  O  O55  1  0.99599133  0.80176767  0.18913967  1
  O  O56  1  0.53247033  0.67126367  0.35566967  1
  O  O57  1  0.83121600  0.51431800  0.25552800  1
  O  O58  1  0.13879333  0.46752967  0.35566967  1
  O  O59  1  0.32873633  0.86120667  0.35566967  1
  O  O60  1  0.00226767  0.80422833  0.31099133  1
  O  O61  1  0.19577167  0.19803933  0.31099133  1
  O  O62  1  0.50129267  0.15106333  0.41038633  1
  O  O63  1  0.80196067  0.99773233  0.31099133  1
  O  O64  1  0.00639533  0.19180567  0.80971667  1
  O  O65  1  0.16229933  0.97745067  0.42509367  1
  O  O66  1  0.64977067  0.49870733  0.41038633  1
  O  O67  1  0.81515133  0.83770067  0.42509367  1
  O  O68  1  0.86489900  0.52755700  0.52247300  1
  O  O69  1  0.02254933  0.18484867  0.42509367  1
  O  O70  1  0.15234867  0.65023133  0.58886133  1
  O  O71  1  0.47244300  0.33734200  0.52247300  1
  O  O72  1  0.18541033  0.99360467  0.80971667  1
  O  O73  1  0.84893667  0.35022933  0.41038633  1
  O  O74  1  0.98317633  0.81861867  0.57644967  1
  O  O75  1  0.80819433  0.81458967  0.80971667  1
  O  O76  1  0.18138133  0.16455767  0.57644967  1
  O  O77  1  0.34976867  0.50211733  0.58886133  1
  O  O78  1  0.83544233  0.01682367  0.57644967  1
  O  O79  1  0.66265800  0.13510100  0.52247300  1
  O  O80  1  0.19913700  0.00459700  0.68900300  1
  O  O81  1  0.49788267  0.84765133  0.58886133  1
  O  O82  1  0.80546000  0.80086300  0.68900300  1
  O  O83  1  0.99540300  0.19454000  0.68900300  1
  O  O84  1  0.66893433  0.13756167  0.64432467  1
  O  O85  1  0.86243833  0.53137267  0.64432467  1
  O  O86  1  0.16795933  0.48439667  0.74371967  1
  O  O87  1  0.46862733  0.33106567  0.64432467  1
  O  O88  1  0.67306200  0.52513900  0.14305000  1
  O  O89  1  0.82896600  0.31078400  0.75842700  1
  O  O90  1  0.31643733  0.83204067  0.74371967  1
  O  O91  1  0.48181800  0.17103400  0.75842700  1
  O  O92  1  0.53156567  0.86089033  0.85580633  1
  O  O93  1  0.68921600  0.51818200  0.75842700  1
  O  O94  1  0.81901533  0.98356467  0.92219467  1
  O  O95  1  0.13910967  0.67067533  0.85580633  1
  O  O96  1  0.85207700  0.32693800  0.14305000  1
  O  O97  1  0.51560333  0.68356267  0.74371967  1
  O  O98  1  0.64984300  0.15195200  0.90978300  1
  O  O99  1  0.47486100  0.14792300  0.14305000  1
  O  O100  1  0.84804800  0.49789100  0.90978300  1
  O  O101  1  0.01643533  0.83545067  0.92219467  1
  O  O102  1  0.50210900  0.35015700  0.90978300  1
  O  O103  1  0.32932467  0.46843433  0.85580633  1
  O  O104  1  0.86580367  0.33793033  0.02233633  1
  O  O105  1  0.16454933  0.18098467  0.92219467  1
  O  O106  1  0.47212667  0.13419633  0.02233633  1
  O  O107  1  0.66206967  0.52787333  0.02233633  1
