# generated using pymatgen
data_Li2MnP2HO8
_symmetry_space_group_name_H-M   'P 1'
_cell_length_a   4.77164000
_cell_length_b   8.32631800
_cell_length_c   7.61765078
_cell_angle_alpha   90.00000000
_cell_angle_beta   104.42225125
_cell_angle_gamma   90.00000000
_symmetry_Int_Tables_number   1
_chemical_formula_structural   Li2MnP2HO8
_chemical_formula_sum   'Li4 Mn2 P4 H2 O16'
_cell_volume   293.11314682
_cell_formula_units_Z   2
loop_
 _symmetry_equiv_pos_site_id
 _symmetry_equiv_pos_as_xyz
  1  'x, y, z'
loop_
 _atom_site_type_symbol
 _atom_site_label
 _atom_site_symmetry_multiplicity
 _atom_site_fract_x
 _atom_site_fract_y
 _atom_site_fract_z
 _atom_site_occupancy
  Li  Li0  1  0.86272600  0.36611000  0.40197100  1
  Li  Li1  1  0.13727400  0.86611000  0.59802900  1
  Li  Li2  1  0.35184300  0.13676900  0.90640900  1
  Li  Li3  1  0.64815700  0.63676900  0.09359100  1
  Mn  Mn4  1  0.75039000  0.99994800  0.24620800  1
  Mn  Mn5  1  0.24961000  0.49994800  0.75379200  1
  P  P6  1  0.87922900  0.35386600  0.01267000  1
  P  P7  1  0.12077100  0.85386600  0.98733000  1
  P  P8  1  0.37696500  0.14909900  0.50538200  1
  P  P9  1  0.62303500  0.64909900  0.49461800  1
  H  H10  1  0.28348900  0.51074300  0.26277200  1
  H  H11  1  0.71651100  0.01074300  0.73722800  1
  O  O12  1  0.86563300  0.53374800  0.59323800  1
  O  O13  1  0.76109700  0.18942600  0.04745500  1
  O  O14  1  0.89561000  0.83260000  0.10417500  1
  O  O15  1  0.00847100  0.44177500  0.19294600  1
  O  O16  1  0.13436700  0.03374800  0.40676200  1
  O  O17  1  0.26337100  0.31103000  0.54865400  1
  O  O18  1  0.99152900  0.94177500  0.80705400  1
  O  O19  1  0.10439000  0.33260000  0.89582500  1
  O  O20  1  0.39051500  0.66754600  0.60350400  1
  O  O21  1  0.50298500  0.05997500  0.69241300  1
  O  O22  1  0.23890300  0.68942600  0.95254500  1
  O  O23  1  0.36638700  0.96726900  0.09234100  1
  O  O24  1  0.49701500  0.55997500  0.30758700  1
  O  O25  1  0.60948500  0.16754600  0.39649600  1
  O  O26  1  0.73662900  0.81103000  0.45134600  1
  O  O27  1  0.63361300  0.46726900  0.90765900  1
