# generated using pymatgen
data_TaFeO4
_symmetry_space_group_name_H-M   'P 1'
_cell_length_a   12.70014000
_cell_length_b   3.88789000
_cell_length_c   6.73438933
_cell_angle_alpha   90.00000000
_cell_angle_beta   107.55966400
_cell_angle_gamma   90.00000000
_symmetry_Int_Tables_number   1
_chemical_formula_structural   TaFeO4
_chemical_formula_sum   'Ta4 Fe4 O16'
_cell_volume   317.02780060
_cell_formula_units_Z   4
loop_
 _symmetry_equiv_pos_site_id
 _symmetry_equiv_pos_as_xyz
  1  'x, y, z'
loop_
 _atom_site_type_symbol
 _atom_site_label
 _atom_site_symmetry_multiplicity
 _atom_site_fract_x
 _atom_site_fract_y
 _atom_site_fract_z
 _atom_site_occupancy
  Ta  Ta0  1  0.10409500  0.00000000  0.22332100  1
  Ta  Ta1  1  0.39590500  0.50000000  0.77667900  1
  Ta  Ta2  1  0.60409500  0.50000000  0.22332100  1
  Ta  Ta3  1  0.89590500  0.00000000  0.77667900  1
  Fe  Fe4  1  0.19675000  0.00000000  0.80707700  1
  Fe  Fe5  1  0.30325000  0.50000000  0.19292300  1
  Fe  Fe6  1  0.69675000  0.50000000  0.80707700  1
  Fe  Fe7  1  0.80325000  0.00000000  0.19292300  1
  O  O8  1  0.05448400  0.00000000  0.86893100  1
  O  O9  1  0.13595900  0.00000000  0.50818100  1
  O  O10  1  0.36589200  0.00000000  0.79733100  1
  O  O11  1  0.25564400  0.00000000  0.14760500  1
  O  O12  1  0.24435600  0.50000000  0.85239500  1
  O  O13  1  0.13410800  0.50000000  0.20266900  1
  O  O14  1  0.36404100  0.50000000  0.49181900  1
  O  O15  1  0.44551600  0.50000000  0.13106900  1
  O  O16  1  0.55448400  0.50000000  0.86893100  1
  O  O17  1  0.63595900  0.50000000  0.50818100  1
  O  O18  1  0.86589200  0.50000000  0.79733100  1
  O  O19  1  0.75564400  0.50000000  0.14760500  1
  O  O20  1  0.74435600  0.00000000  0.85239500  1
  O  O21  1  0.63410800  0.00000000  0.20266900  1
  O  O22  1  0.86404100  0.00000000  0.49181900  1
  O  O23  1  0.94551600  0.00000000  0.13106900  1
