# generated using pymatgen
data_Li4Fe3Co2Cu3O16
_symmetry_space_group_name_H-M   'P 1'
_cell_length_a   10.08786363
_cell_length_b   5.83946928
_cell_length_c   9.28001999
_cell_angle_alpha   90.00000000
_cell_angle_beta   90.47427371
_cell_angle_gamma   90.00000000
_symmetry_Int_Tables_number   1
_chemical_formula_structural   Li4Fe3Co2Cu3O16
_chemical_formula_sum   'Li8 Fe6 Co4 Cu6 O32'
_cell_volume   546.64655234
_cell_formula_units_Z   2
loop_
 _symmetry_equiv_pos_site_id
 _symmetry_equiv_pos_as_xyz
  1  'x, y, z'
loop_
 _atom_site_type_symbol
 _atom_site_label
 _atom_site_symmetry_multiplicity
 _atom_site_fract_x
 _atom_site_fract_y
 _atom_site_fract_z
 _atom_site_occupancy
  Li  Li0  1  0.83912750  0.50000000  0.89751400  1
  Li  Li1  1  0.49723800  0.50000000  0.99500800  1
  Li  Li2  1  0.49376600  0.50000000  0.48963300  1
  Li  Li3  1  0.16834400  0.50000000  0.39522800  1
  Li  Li4  1  0.33912750  0.00000000  0.89751400  1
  Li  Li5  1  0.99723800  0.00000000  0.99500800  1
  Li  Li6  1  0.99376600  0.00000000  0.48963300  1
  Li  Li7  1  0.66834400  0.00000000  0.39522800  1
  Fe  Fe8  1  0.66995300  0.50000000  0.21252600  1
  Fe  Fe9  1  0.08627200  0.74504300  0.71330100  1
  Fe  Fe10  1  0.08627200  0.25495700  0.71330100  1
  Fe  Fe11  1  0.16995300  0.00000000  0.21252600  1
  Fe  Fe12  1  0.58627200  0.24504300  0.71330100  1
  Fe  Fe13  1  0.58627200  0.75495700  0.71330100  1
  Co  Co14  1  0.83251000  0.50000000  0.48484500  1
  Co  Co15  1  0.17002200  0.50000000  0.98657300  1
  Co  Co16  1  0.33251000  0.00000000  0.48484500  1
  Co  Co17  1  0.67002200  0.00000000  0.98657300  1
  Cu  Cu18  1  0.91506150  0.73997350  0.21104900  1
  Cu  Cu19  1  0.91506150  0.26002650  0.21104900  1
  Cu  Cu20  1  0.32823000  0.50000000  0.71038700  1
  Cu  Cu21  1  0.41506150  0.23997350  0.21104900  1
  Cu  Cu22  1  0.41506150  0.76002650  0.21104900  1
  Cu  Cu23  1  0.82823000  0.00000000  0.71038700  1
  O  O24  1  0.91662250  0.73983350  0.59309800  1
  O  O25  1  0.97753000  0.50000000  0.35381800  1
  O  O26  1  0.83668950  0.50000000  0.10750100  1
  O  O27  1  0.49289300  0.50000000  0.29634200  1
  O  O28  1  0.49266400  0.50000000  0.80230900  1
  O  O29  1  0.91662250  0.26016650  0.59309800  1
  O  O30  1  0.75995050  0.71533950  0.35197600  1
  O  O31  1  0.75995050  0.28466050  0.35197600  1
  O  O32  1  0.32703500  0.50000000  0.09219000  1
  O  O33  1  0.66997600  0.50000000  0.59834700  1
  O  O34  1  0.24020050  0.71815150  0.85220000  1
  O  O35  1  0.24020050  0.28184850  0.85220000  1
  O  O36  1  0.17114850  0.50000000  0.60411200  1
  O  O37  1  0.08931850  0.74428350  0.09458500  1
  O  O38  1  0.02435150  0.50000000  0.84843700  1
  O  O39  1  0.08931850  0.25571650  0.09458500  1
  O  O40  1  0.41662250  0.23983350  0.59309800  1
  O  O41  1  0.47753000  0.00000000  0.35381800  1
  O  O42  1  0.33668950  0.00000000  0.10750100  1
  O  O43  1  0.99289300  0.00000000  0.29634200  1
  O  O44  1  0.99266400  0.00000000  0.80230900  1
  O  O45  1  0.41662250  0.76016650  0.59309800  1
  O  O46  1  0.25995050  0.21533950  0.35197600  1
  O  O47  1  0.25995050  0.78466050  0.35197600  1
  O  O48  1  0.82703500  0.00000000  0.09219000  1
  O  O49  1  0.16997600  0.00000000  0.59834700  1
  O  O50  1  0.74020050  0.21815150  0.85220000  1
  O  O51  1  0.74020050  0.78184850  0.85220000  1
  O  O52  1  0.67114850  0.00000000  0.60411200  1
  O  O53  1  0.58931850  0.24428350  0.09458500  1
  O  O54  1  0.52435150  0.00000000  0.84843700  1
  O  O55  1  0.58931850  0.75571650  0.09458500  1
