# generated using pymatgen
data_Li(CoO2)2
_symmetry_space_group_name_H-M   'P 1'
_cell_length_a   2.81443201
_cell_length_b   2.81443201
_cell_length_c   28.27190784
_cell_angle_alpha   90.00000000
_cell_angle_beta   90.00000000
_cell_angle_gamma   120.00000000
_symmetry_Int_Tables_number   1
_chemical_formula_structural   Li(CoO2)2
_chemical_formula_sum   'Li3 Co6 O12'
_cell_volume   193.93994595
_cell_formula_units_Z   3
loop_
 _symmetry_equiv_pos_site_id
 _symmetry_equiv_pos_as_xyz
  1  'x, y, z'
loop_
 _atom_site_type_symbol
 _atom_site_label
 _atom_site_symmetry_multiplicity
 _atom_site_fract_x
 _atom_site_fract_y
 _atom_site_fract_z
 _atom_site_occupancy
  Li  Li0  1  0.00000000  0.00000000  0.08664900  1
  Li  Li1  1  0.66666667  0.33333333  0.41998233  1
  Li  Li2  1  0.33333333  0.66666667  0.75331567  1
  Co  Co3  1  0.33333333  0.66666667  0.16937167  1
  Co  Co4  1  0.66666667  0.33333333  0.33124533  1
  Co  Co5  1  0.00000000  0.00000000  0.50270500  1
  Co  Co6  1  0.33333333  0.66666667  0.66457867  1
  Co  Co7  1  0.66666667  0.33333333  0.83603833  1
  Co  Co8  1  0.00000000  0.00000000  0.99791200  1
  O  O9  1  0.33333333  0.66666667  0.30012967  1
  O  O10  1  0.33333333  0.66666667  0.03567967  1
  O  O11  1  0.66666667  0.33333333  0.13154933  1
  O  O12  1  0.00000000  0.00000000  0.20054200  1
  O  O13  1  0.00000000  0.00000000  0.63346300  1
  O  O14  1  0.00000000  0.00000000  0.36901300  1
  O  O15  1  0.33333333  0.66666667  0.46488267  1
  O  O16  1  0.66666667  0.33333333  0.53387533  1
  O  O17  1  0.66666667  0.33333333  0.96679633  1
  O  O18  1  0.66666667  0.33333333  0.70234633  1
  O  O19  1  0.00000000  0.00000000  0.79821600  1
  O  O20  1  0.33333333  0.66666667  0.86720867  1
