# generated using pymatgen
data_Li2Fe7(OF2)4
_symmetry_space_group_name_H-M   'P 1'
_cell_length_a   20.45836600
_cell_length_b   8.55067800
_cell_length_c   6.35540717
_cell_angle_alpha   90.00000000
_cell_angle_beta   107.80256473
_cell_angle_gamma   90.00000000
_symmetry_Int_Tables_number   1
_chemical_formula_structural   Li2Fe7(OF2)4
_chemical_formula_sum   'Li8 Fe28 O16 F32'
_cell_volume   1058.53349777
_cell_formula_units_Z   4
loop_
 _symmetry_equiv_pos_site_id
 _symmetry_equiv_pos_as_xyz
  1  'x, y, z'
loop_
 _atom_site_type_symbol
 _atom_site_label
 _atom_site_symmetry_multiplicity
 _atom_site_fract_x
 _atom_site_fract_y
 _atom_site_fract_z
 _atom_site_occupancy
  Li  Li0  1  0.25416550  0.74992450  0.98214400  1
  Li  Li1  1  0.25416550  0.25007550  0.48214400  1
  Li  Li2  1  0.00408400  0.85420800  0.26112500  1
  Li  Li3  1  0.00408400  0.14579200  0.76112500  1
  Li  Li4  1  0.75416550  0.24992450  0.98214400  1
  Li  Li5  1  0.75416550  0.75007550  0.48214400  1
  Li  Li6  1  0.50408400  0.35420800  0.26112500  1
  Li  Li7  1  0.50408400  0.64579200  0.76112500  1
  Fe  Fe8  1  0.16801300  0.51189600  0.66945800  1
  Fe  Fe9  1  0.48947350  0.00754450  0.48676200  1
  Fe  Fe10  1  0.08212750  0.22276950  0.29533800  1
  Fe  Fe11  1  0.17484700  0.85039400  0.45059200  1
  Fe  Fe12  1  0.41643750  0.73307450  0.12899000  1
  Fe  Fe13  1  0.33632000  0.35612100  0.10113300  1
  Fe  Fe14  1  0.16801300  0.48810400  0.16945800  1
  Fe  Fe15  1  0.48947350  0.99245550  0.98676200  1
  Fe  Fe16  1  0.34265350  0.98506650  0.83103500  1
  Fe  Fe17  1  0.17484700  0.14960600  0.95059200  1
  Fe  Fe18  1  0.41643750  0.26692550  0.62899000  1
  Fe  Fe19  1  0.08212750  0.77723050  0.79533800  1
  Fe  Fe20  1  0.33632000  0.64387900  0.60113300  1
  Fe  Fe21  1  0.34265350  0.01493350  0.33103500  1
  Fe  Fe22  1  0.66801300  0.01189600  0.66945800  1
  Fe  Fe23  1  0.98947350  0.50754450  0.48676200  1
  Fe  Fe24  1  0.58212750  0.72276950  0.29533800  1
  Fe  Fe25  1  0.67484700  0.35039400  0.45059200  1
  Fe  Fe26  1  0.91643750  0.23307450  0.12899000  1
  Fe  Fe27  1  0.83632000  0.85612100  0.10113300  1
  Fe  Fe28  1  0.66801300  0.98810400  0.16945800  1
  Fe  Fe29  1  0.98947350  0.49245550  0.98676200  1
  Fe  Fe30  1  0.84265350  0.48506650  0.83103500  1
  Fe  Fe31  1  0.67484700  0.64960600  0.95059200  1
  Fe  Fe32  1  0.91643750  0.76692550  0.62899000  1
  Fe  Fe33  1  0.58212750  0.27723050  0.79533800  1
  Fe  Fe34  1  0.83632000  0.14387900  0.60113300  1
  Fe  Fe35  1  0.84265350  0.51493350  0.33103500  1
  O  O36  1  0.17061250  0.74099950  0.71201000  1
  O  O37  1  0.00331100  0.73604400  0.52774400  1
  O  O38  1  0.41424650  0.98442050  0.16816500  1
  O  O39  1  0.17061250  0.25900050  0.21201000  1
  O  O40  1  0.33124700  0.74587800  0.86444900  1
  O  O41  1  0.00331100  0.26395600  0.02774400  1
  O  O42  1  0.41424650  0.01557950  0.66816500  1
  O  O43  1  0.33124700  0.25412200  0.36444900  1
  O  O44  1  0.67061250  0.24099950  0.71201000  1
  O  O45  1  0.50331100  0.23604400  0.52774400  1
  O  O46  1  0.91424650  0.48442050  0.16816500  1
  O  O47  1  0.67061250  0.75900050  0.21201000  1
  O  O48  1  0.83124700  0.24587800  0.86444900  1
  O  O49  1  0.50331100  0.76395600  0.02774400  1
  O  O50  1  0.91424650  0.51557950  0.66816500  1
  O  O51  1  0.83124700  0.75412200  0.36444900  1
  F  F52  1  0.16638600  0.26427300  0.65560300  1
  F  F53  1  0.08802400  0.97725200  0.33179500  1
  F  F54  1  0.08867000  0.49341900  0.34488700  1
  F  F55  1  0.42284050  0.48264750  0.15500000  1
  F  F56  1  0.24357750  0.50709250  0.49649200  1
  F  F57  1  0.26058900  0.00720500  0.00069100  1
  F  F58  1  0.00340500  0.73288300  0.98431400  1
  F  F59  1  0.16638600  0.73572700  0.15560300  1
  F  F60  1  0.33135000  0.24980300  0.80943600  1
  F  F61  1  0.26058900  0.99279500  0.50069100  1
  F  F62  1  0.08867000  0.50658100  0.84488700  1
  F  F63  1  0.24357750  0.49290750  0.99649200  1
  F  F64  1  0.08802400  0.02274800  0.83179500  1
  F  F65  1  0.42284050  0.51735250  0.65500000  1
  F  F66  1  0.00340500  0.26711700  0.48431400  1
  F  F67  1  0.33135000  0.75019700  0.30943600  1
  F  F68  1  0.66638600  0.76427300  0.65560300  1
  F  F69  1  0.58802400  0.47725200  0.33179500  1
  F  F70  1  0.58867000  0.99341900  0.34488700  1
  F  F71  1  0.92284050  0.98264750  0.15500000  1
  F  F72  1  0.74357750  0.00709250  0.49649200  1
  F  F73  1  0.76058900  0.50720500  0.00069100  1
  F  F74  1  0.50340500  0.23288300  0.98431400  1
  F  F75  1  0.66638600  0.23572700  0.15560300  1
  F  F76  1  0.83135000  0.74980300  0.80943600  1
  F  F77  1  0.76058900  0.49279500  0.50069100  1
  F  F78  1  0.58867000  0.00658100  0.84488700  1
  F  F79  1  0.74357750  0.99290750  0.99649200  1
  F  F80  1  0.58802400  0.52274800  0.83179500  1
  F  F81  1  0.92284050  0.01735250  0.65500000  1
  F  F82  1  0.50340500  0.76711700  0.48431400  1
  F  F83  1  0.83135000  0.25019700  0.30943600  1
