# generated using pymatgen
data_BaLi2NiO3
_symmetry_space_group_name_H-M   'P 1'
_cell_length_a   6.90857400
_cell_length_b   7.14629604
_cell_length_c   8.01122303
_cell_angle_alpha   90.00000000
_cell_angle_beta   90.00000000
_cell_angle_gamma   90.00000000
_symmetry_Int_Tables_number   1
_chemical_formula_structural   BaLi2NiO3
_chemical_formula_sum   'Ba4 Li8 Ni4 O12'
_cell_volume   395.51980930
_cell_formula_units_Z   4
loop_
 _symmetry_equiv_pos_site_id
 _symmetry_equiv_pos_as_xyz
  1  'x, y, z'
loop_
 _atom_site_type_symbol
 _atom_site_label
 _atom_site_symmetry_multiplicity
 _atom_site_fract_x
 _atom_site_fract_y
 _atom_site_fract_z
 _atom_site_occupancy
  Ba  Ba0  1  0.25000000  0.65365650  0.03787750  1
  Ba  Ba1  1  0.75000000  0.15365650  0.46212250  1
  Ba  Ba2  1  0.25000000  0.84634350  0.53787750  1
  Ba  Ba3  1  0.75000000  0.34634350  0.96212250  1
  Li  Li4  1  0.03533500  0.04883050  0.14161550  1
  Li  Li5  1  0.46466500  0.04883050  0.14161550  1
  Li  Li6  1  0.96466500  0.54883050  0.35838450  1
  Li  Li7  1  0.53533500  0.54883050  0.35838450  1
  Li  Li8  1  0.03533500  0.45116950  0.64161550  1
  Li  Li9  1  0.46466500  0.45116950  0.64161550  1
  Li  Li10  1  0.53533500  0.95116950  0.85838450  1
  Li  Li11  1  0.96466500  0.95116950  0.85838450  1
  Ni  Ni12  1  0.25000000  0.31643950  0.31210850  1
  Ni  Ni13  1  0.75000000  0.68356050  0.68789150  1
  Ni  Ni14  1  0.75000000  0.81643950  0.18789150  1
  Ni  Ni15  1  0.25000000  0.18356050  0.81210850  1
  O  O16  1  0.75000000  0.99537450  0.01354950  1
  O  O17  1  0.25000000  0.49537450  0.48645050  1
  O  O18  1  0.75000000  0.50462550  0.51354950  1
  O  O19  1  0.25000000  0.00462550  0.98645050  1
  O  O20  1  0.50213900  0.81248250  0.27952950  1
  O  O21  1  0.99786100  0.81248250  0.27952950  1
  O  O22  1  0.00213900  0.31248250  0.22047050  1
  O  O23  1  0.49786100  0.31248250  0.22047050  1
  O  O24  1  0.50213900  0.68751750  0.77952950  1
  O  O25  1  0.99786100  0.68751750  0.77952950  1
  O  O26  1  0.00213900  0.18751750  0.72047050  1
  O  O27  1  0.49786100  0.18751750  0.72047050  1
