# generated using pymatgen
data_Na5LiMn2P2(CO7)2
_symmetry_space_group_name_H-M   'P 1'
_cell_length_a   5.21148531
_cell_length_b   6.79307414
_cell_length_c   8.97902919
_cell_angle_alpha   90.84432754
_cell_angle_beta   90.14740809
_cell_angle_gamma   90.20293591
_symmetry_Int_Tables_number   1
_chemical_formula_structural   Na5LiMn2P2(CO7)2
_chemical_formula_sum   'Na5 Li1 Mn2 P2 C2 O14'
_cell_volume   317.83804275
_cell_formula_units_Z   1
loop_
 _symmetry_equiv_pos_site_id
 _symmetry_equiv_pos_as_xyz
  1  'x, y, z'
loop_
 _atom_site_type_symbol
 _atom_site_label
 _atom_site_symmetry_multiplicity
 _atom_site_fract_x
 _atom_site_fract_y
 _atom_site_fract_z
 _atom_site_occupancy
  Na  Na0  1  0.75458800  0.23482450  0.91645350  1
  Na  Na1  1  0.25134050  0.50234550  0.74473350  1
  Na  Na2  1  0.75409000  0.50369200  0.25975800  1
  Na  Na3  1  0.75184150  0.99697100  0.25890000  1
  Na  Na4  1  0.24277700  0.75990400  0.08170900  1
  Li  Li5  1  0.21248650  0.03120600  0.71327700  1
  Mn  Mn6  1  0.77911000  0.75465600  0.64403800  1
  Mn  Mn7  1  0.22384550  0.24958050  0.36108750  1
  P  P8  1  0.70841300  0.24767000  0.58968400  1
  P  P9  1  0.30011450  0.75568450  0.41778650  1
  C  C10  1  0.73437250  0.74837750  0.94129550  1
  C  C11  1  0.26134250  0.23910400  0.05412300  1
  O  O12  1  0.27916550  0.22810250  0.91011950  1
  O  O13  1  0.96122600  0.74399600  0.88110600  1
  O  O14  1  0.53289450  0.75675250  0.85534250  1
  O  O15  1  0.82154700  0.07302750  0.67888950  1
  O  O16  1  0.77404550  0.43713550  0.68104950  1
  O  O17  1  0.40889550  0.22533750  0.57722450  1
  O  O18  1  0.18267300  0.76729550  0.57693650  1
  O  O19  1  0.82077050  0.25313900  0.42985800  1
  O  O20  1  0.59899100  0.75612450  0.43258150  1
  O  O21  1  0.21487200  0.56603700  0.33129200  1
  O  O22  1  0.21667350  0.93326800  0.32097100  1
  O  O23  1  0.46730950  0.24721800  0.13760700  1
  O  O24  1  0.03789800  0.24252950  0.11930250  1
  O  O25  1  0.70871750  0.74601850  0.08486950  1
