# generated using pymatgen
data_Mn5Cr2O12
_symmetry_space_group_name_H-M   'P 1'
_cell_length_a   5.03584200
_cell_length_b   9.03711600
_cell_length_c   9.85755430
_cell_angle_alpha   90.00000000
_cell_angle_beta   104.02642345
_cell_angle_gamma   90.00000000
_symmetry_Int_Tables_number   1
_chemical_formula_structural   Mn5Cr2O12
_chemical_formula_sum   'Mn10 Cr4 O24'
_cell_volume   435.23645382
_cell_formula_units_Z   2
loop_
 _symmetry_equiv_pos_site_id
 _symmetry_equiv_pos_as_xyz
  1  'x, y, z'
loop_
 _atom_site_type_symbol
 _atom_site_label
 _atom_site_symmetry_multiplicity
 _atom_site_fract_x
 _atom_site_fract_y
 _atom_site_fract_z
 _atom_site_occupancy
  Mn  Mn0  1  0.00000000  0.67399000  0.50000000  1
  Mn  Mn1  1  0.49995550  0.97583550  0.22867500  1
  Mn  Mn2  1  0.50004450  0.97583550  0.77132500  1
  Mn  Mn3  1  0.50000000  0.83221100  0.50000000  1
  Mn  Mn4  1  0.00000000  0.67985100  0.00000000  1
  Mn  Mn5  1  0.50000000  0.17399000  0.50000000  1
  Mn  Mn6  1  0.99995550  0.47583550  0.22867500  1
  Mn  Mn7  1  0.00004450  0.47583550  0.77132500  1
  Mn  Mn8  1  0.00000000  0.33221100  0.50000000  1
  Mn  Mn9  1  0.50000000  0.17985100  0.00000000  1
  Cr  Cr10  1  0.00000000  0.99680100  0.00000000  1
  Cr  Cr11  1  0.50000000  0.50398300  0.50000000  1
  Cr  Cr12  1  0.50000000  0.49680100  0.00000000  1
  Cr  Cr13  1  0.00000000  0.00398300  0.50000000  1
  O  O14  1  0.77137600  0.63245100  0.12559600  1
  O  O15  1  0.22862400  0.63245100  0.87440400  1
  O  O16  1  0.70201550  0.98998750  0.61143300  1
  O  O17  1  0.29798450  0.98998750  0.38856700  1
  O  O18  1  0.20284900  0.84322700  0.10315300  1
  O  O19  1  0.79715100  0.84322700  0.89684700  1
  O  O20  1  0.72266000  0.66964100  0.60008200  1
  O  O21  1  0.27734000  0.66964100  0.39991800  1
  O  O22  1  0.24422500  0.53327200  0.11573500  1
  O  O23  1  0.75577500  0.53327200  0.88426500  1
  O  O24  1  0.24147600  0.84787700  0.61438400  1
  O  O25  1  0.75852400  0.84787700  0.38561600  1
  O  O26  1  0.27137600  0.13245100  0.12559600  1
  O  O27  1  0.72862400  0.13245100  0.87440400  1
  O  O28  1  0.20201550  0.48998750  0.61143300  1
  O  O29  1  0.79798450  0.48998750  0.38856700  1
  O  O30  1  0.70284900  0.34322700  0.10315300  1
  O  O31  1  0.29715100  0.34322700  0.89684700  1
  O  O32  1  0.22266000  0.16964100  0.60008200  1
  O  O33  1  0.77734000  0.16964100  0.39991800  1
  O  O34  1  0.74422500  0.03327200  0.11573500  1
  O  O35  1  0.25577500  0.03327200  0.88426500  1
  O  O36  1  0.74147600  0.34787700  0.61438400  1
  O  O37  1  0.25852400  0.34787700  0.38561600  1
