# generated using pymatgen
data_Na14Cu2O9
_symmetry_space_group_name_H-M   'P 1'
_cell_length_a   6.65779559
_cell_length_b   6.65779559
_cell_length_c   9.28971600
_cell_angle_alpha   90.00000000
_cell_angle_beta   90.00000000
_cell_angle_gamma   120.00000000
_symmetry_Int_Tables_number   1
_chemical_formula_structural   Na14Cu2O9
_chemical_formula_sum   'Na14 Cu2 O9'
_cell_volume   356.61038286
_cell_formula_units_Z   1
loop_
 _symmetry_equiv_pos_site_id
 _symmetry_equiv_pos_as_xyz
  1  'x, y, z'
loop_
 _atom_site_type_symbol
 _atom_site_label
 _atom_site_symmetry_multiplicity
 _atom_site_fract_x
 _atom_site_fract_y
 _atom_site_fract_z
 _atom_site_occupancy
  Na  Na0  1  0.03421733  0.67566467  0.90689500  1
  Na  Na1  1  0.31726233  0.94082267  0.59463900  1
  Na  Na2  1  0.05917733  0.37643967  0.59463900  1
  Na  Na3  1  0.00000000  0.00000000  0.25376600  1
  Na  Na4  1  0.00000000  0.00000000  0.74623400  1
  Na  Na5  1  0.32433533  0.35855267  0.90689500  1
  Na  Na6  1  0.64144733  0.96578267  0.90689500  1
  Na  Na7  1  0.37643967  0.31726233  0.40536100  1
  Na  Na8  1  0.62356033  0.68273767  0.59463900  1
  Na  Na9  1  0.35855267  0.03421733  0.09310500  1
  Na  Na10  1  0.67566467  0.64144733  0.09310500  1
  Na  Na11  1  0.94082267  0.62356033  0.40536100  1
  Na  Na12  1  0.68273767  0.05917733  0.40536100  1
  Na  Na13  1  0.96578267  0.32433533  0.09310500  1
  Cu  Cu14  1  0.33333333  0.66666667  0.25929400  1
  Cu  Cu15  1  0.66666667  0.33333333  0.74070600  1
  O  O16  1  0.30479933  0.94755967  0.33586400  1
  O  O17  1  0.05244033  0.35723967  0.33586400  1
  O  O18  1  0.33333333  0.66666667  0.04418600  1
  O  O19  1  0.00000000  0.00000000  0.00000000  1
  O  O20  1  0.35723967  0.30479933  0.66413600  1
  O  O21  1  0.64276033  0.69520067  0.33586400  1
  O  O22  1  0.66666667  0.33333333  0.95581400  1
  O  O23  1  0.94755967  0.64276033  0.66413600  1
  O  O24  1  0.69520067  0.05244033  0.66413600  1
