# generated using pymatgen
data_ZnFeO3
_symmetry_space_group_name_H-M   'P 1'
_cell_length_a   5.13184771
_cell_length_b   5.13184771
_cell_length_c   13.89086669
_cell_angle_alpha   90.00000000
_cell_angle_beta   90.00000000
_cell_angle_gamma   120.00000000
_symmetry_Int_Tables_number   1
_chemical_formula_structural   ZnFeO3
_chemical_formula_sum   'Zn6 Fe6 O18'
_cell_volume   316.81628324
_cell_formula_units_Z   6
loop_
 _symmetry_equiv_pos_site_id
 _symmetry_equiv_pos_as_xyz
  1  'x, y, z'
loop_
 _atom_site_type_symbol
 _atom_site_label
 _atom_site_symmetry_multiplicity
 _atom_site_fract_x
 _atom_site_fract_y
 _atom_site_fract_z
 _atom_site_occupancy
  Zn  Zn0  1  0.33333333  0.66666667  0.30364967  1
  Zn  Zn1  1  0.33333333  0.66666667  0.02968367  1
  Zn  Zn2  1  0.00000000  0.00000000  0.63698300  1
  Zn  Zn3  1  0.00000000  0.00000000  0.36301700  1
  Zn  Zn4  1  0.66666667  0.33333333  0.97031633  1
  Zn  Zn5  1  0.66666667  0.33333333  0.69635033  1
  Fe  Fe6  1  0.66666667  0.33333333  0.18010033  1
  Fe  Fe7  1  0.00000000  0.00000000  0.15323300  1
  Fe  Fe8  1  0.33333333  0.66666667  0.51343367  1
  Fe  Fe9  1  0.66666667  0.33333333  0.48656633  1
  Fe  Fe10  1  0.00000000  0.00000000  0.84676700  1
  Fe  Fe11  1  0.33333333  0.66666667  0.81989967  1
  O  O12  1  0.31264800  0.02050100  0.24664800  1
  O  O13  1  0.68716767  0.04118633  0.08668533  1
  O  O14  1  0.95881367  0.64598133  0.08668533  1
  O  O15  1  0.70785300  0.68735200  0.24664800  1
  O  O16  1  0.97949900  0.29214700  0.24664800  1
  O  O17  1  0.35401867  0.31283233  0.08668533  1
  O  O18  1  0.97931467  0.35383433  0.57998133  1
  O  O19  1  0.35383433  0.37451967  0.42001867  1
  O  O20  1  0.62548033  0.97931467  0.42001867  1
  O  O21  1  0.37451967  0.02068533  0.57998133  1
  O  O22  1  0.64616567  0.62548033  0.57998133  1
  O  O23  1  0.02068533  0.64616567  0.42001867  1
  O  O24  1  0.64598133  0.68716767  0.91331467  1
  O  O25  1  0.02050100  0.70785300  0.75335200  1
  O  O26  1  0.29214700  0.31264800  0.75335200  1
  O  O27  1  0.04118633  0.35401867  0.91331467  1
  O  O28  1  0.31283233  0.95881367  0.91331467  1
  O  O29  1  0.68735200  0.97949900  0.75335200  1
