# generated using pymatgen
data_Li3Mn(FeO2)4
_symmetry_space_group_name_H-M   'P 1'
_cell_length_a   10.32517400
_cell_length_b   6.03934000
_cell_length_c   6.03244687
_cell_angle_alpha   90.00000000
_cell_angle_beta   125.60979070
_cell_angle_gamma   90.00000000
_symmetry_Int_Tables_number   1
_chemical_formula_structural   Li3Mn(FeO2)4
_chemical_formula_sum   'Li6 Mn2 Fe8 O16'
_cell_volume   305.82401929
_cell_formula_units_Z   2
loop_
 _symmetry_equiv_pos_site_id
 _symmetry_equiv_pos_as_xyz
  1  'x, y, z'
loop_
 _atom_site_type_symbol
 _atom_site_label
 _atom_site_symmetry_multiplicity
 _atom_site_fract_x
 _atom_site_fract_y
 _atom_site_fract_z
 _atom_site_occupancy
  Li  Li0  1  0.75000000  0.75000000  0.00000000  1
  Li  Li1  1  0.00000000  0.00000000  0.50000000  1
  Li  Li2  1  0.25000000  0.75000000  0.00000000  1
  Li  Li3  1  0.25000000  0.25000000  0.00000000  1
  Li  Li4  1  0.50000000  0.50000000  0.50000000  1
  Li  Li5  1  0.75000000  0.25000000  0.00000000  1
  Mn  Mn6  1  0.00000000  0.50000000  0.00000000  1
  Mn  Mn7  1  0.50000000  0.00000000  0.00000000  1
  Fe  Fe8  1  0.50000000  0.00000000  0.50000000  1
  Fe  Fe9  1  0.00000000  0.00000000  0.00000000  1
  Fe  Fe10  1  0.25000000  0.25000000  0.50000000  1
  Fe  Fe11  1  0.25000000  0.75000000  0.50000000  1
  Fe  Fe12  1  0.00000000  0.50000000  0.50000000  1
  Fe  Fe13  1  0.50000000  0.50000000  0.00000000  1
  Fe  Fe14  1  0.75000000  0.75000000  0.50000000  1
  Fe  Fe15  1  0.75000000  0.25000000  0.50000000  1
  O  O16  1  0.26979600  0.00000000  0.75563200  1
  O  O17  1  0.99656150  0.74981950  0.24567900  1
  O  O18  1  0.99656150  0.25018050  0.24567900  1
  O  O19  1  0.74929700  0.00000000  0.75253500  1
  O  O20  1  0.75070300  0.50000000  0.24746500  1
  O  O21  1  0.50343850  0.24981950  0.75432100  1
  O  O22  1  0.50343850  0.75018050  0.75432100  1
  O  O23  1  0.23020400  0.50000000  0.24436800  1
  O  O24  1  0.76979600  0.50000000  0.75563200  1
  O  O25  1  0.49656150  0.24981950  0.24567900  1
  O  O26  1  0.49656150  0.75018050  0.24567900  1
  O  O27  1  0.24929700  0.50000000  0.75253500  1
  O  O28  1  0.25070300  0.00000000  0.24746500  1
  O  O29  1  0.00343850  0.74981950  0.75432100  1
  O  O30  1  0.00343850  0.25018050  0.75432100  1
  O  O31  1  0.73020400  0.00000000  0.24436800  1
