# generated using pymatgen
data_Li2Mn2O3
_symmetry_space_group_name_H-M   'P 1'
_cell_length_a   5.43364657
_cell_length_b   5.46643900
_cell_length_c   5.99767995
_cell_angle_alpha   90.00000000
_cell_angle_beta   114.51188835
_cell_angle_gamma   90.00000000
_symmetry_Int_Tables_number   1
_chemical_formula_structural   Li2Mn2O3
_chemical_formula_sum   'Li4 Mn4 O6'
_cell_volume   162.09178707
_cell_formula_units_Z   2
loop_
 _symmetry_equiv_pos_site_id
 _symmetry_equiv_pos_as_xyz
  1  'x, y, z'
loop_
 _atom_site_type_symbol
 _atom_site_label
 _atom_site_symmetry_multiplicity
 _atom_site_fract_x
 _atom_site_fract_y
 _atom_site_fract_z
 _atom_site_occupancy
  Li  Li0  1  0.18165700  0.65434300  0.55846350  1
  Li  Li1  1  0.68165700  0.84565700  0.55846350  1
  Li  Li2  1  0.31834300  0.15434300  0.44153650  1
  Li  Li3  1  0.81834300  0.34565700  0.44153650  1
  Mn  Mn4  1  0.76717000  0.90461300  0.14704850  1
  Mn  Mn5  1  0.26717000  0.59538700  0.14704850  1
  Mn  Mn6  1  0.73283000  0.40461300  0.85295150  1
  Mn  Mn7  1  0.23283000  0.09538700  0.85295150  1
  O  O8  1  0.50000000  0.50000000  0.50000000  1
  O  O9  1  0.00000000  0.00000000  0.50000000  1
  O  O10  1  0.60645500  0.04047200  0.79987850  1
  O  O11  1  0.89354500  0.54047200  0.20012150  1
  O  O12  1  0.10645500  0.45952800  0.79987850  1
  O  O13  1  0.39354500  0.95952800  0.20012150  1
