# generated using pymatgen
data_Li2NbCr3O8
_symmetry_space_group_name_H-M   'P 1'
_cell_length_a   6.02229466
_cell_length_b   6.02229466
_cell_length_c   14.85232419
_cell_angle_alpha   90.00000000
_cell_angle_beta   90.00000000
_cell_angle_gamma   120.00000000
_symmetry_Int_Tables_number   1
_chemical_formula_structural   Li2NbCr3O8
_chemical_formula_sum   'Li6 Nb3 Cr9 O24'
_cell_volume   466.49721363
_cell_formula_units_Z   3
loop_
 _symmetry_equiv_pos_site_id
 _symmetry_equiv_pos_as_xyz
  1  'x, y, z'
loop_
 _atom_site_type_symbol
 _atom_site_label
 _atom_site_symmetry_multiplicity
 _atom_site_fract_x
 _atom_site_fract_y
 _atom_site_fract_z
 _atom_site_occupancy
  Li  Li0  1  0.66666667  0.33333333  0.20529400  1
  Li  Li1  1  0.00000000  0.00000000  0.12803933  1
  Li  Li2  1  0.33333333  0.66666667  0.53862733  1
  Li  Li3  1  0.66666667  0.33333333  0.46137267  1
  Li  Li4  1  0.00000000  0.00000000  0.87196067  1
  Li  Li5  1  0.33333333  0.66666667  0.79470600  1
  Nb  Nb6  1  0.33333333  0.66666667  0.16666667  1
  Nb  Nb7  1  1.00000000  1.00000000  0.50000000  1
  Nb  Nb8  1  0.66666667  0.33333333  0.83333333  1
  Cr  Cr9  1  0.50000000  0.50000000  0.00000000  1
  Cr  Cr10  1  0.00000000  0.50000000  0.00000000  1
  Cr  Cr11  1  0.50000000  0.00000000  0.00000000  1
  Cr  Cr12  1  0.16666667  0.83333333  0.33333333  1
  Cr  Cr13  1  0.66666667  0.83333333  0.33333333  1
  Cr  Cr14  1  0.16666667  0.33333333  0.33333333  1
  Cr  Cr15  1  0.83333333  0.16666667  0.66666667  1
  Cr  Cr16  1  0.33333333  0.16666667  0.66666667  1
  Cr  Cr17  1  0.83333333  0.66666667  0.66666667  1
  O  O18  1  0.66666667  0.33333333  0.06819433  1
  O  O19  1  0.00000000  0.00000000  0.26513900  1
  O  O20  1  0.48493233  0.96986467  0.25275467  1
  O  O21  1  0.03013533  0.51506767  0.25275467  1
  O  O22  1  0.48493233  0.51506767  0.25275467  1
  O  O23  1  0.18173433  0.81826567  0.08057867  1
  O  O24  1  0.63653133  0.81826567  0.08057867  1
  O  O25  1  0.18173433  0.36346867  0.08057867  1
  O  O26  1  0.33333333  0.66666667  0.40152767  1
  O  O27  1  0.66666667  0.33333333  0.59847233  1
  O  O28  1  0.15159900  0.30319800  0.58608800  1
  O  O29  1  0.69680200  0.84840100  0.58608800  1
  O  O30  1  0.15159900  0.84840100  0.58608800  1
  O  O31  1  0.84840100  0.15159900  0.41391200  1
  O  O32  1  0.30319800  0.15159900  0.41391200  1
  O  O33  1  0.84840100  0.69680200  0.41391200  1
  O  O34  1  0.00000000  0.00000000  0.73486100  1
  O  O35  1  0.33333333  0.66666667  0.93180567  1
  O  O36  1  0.81826567  0.63653133  0.91942133  1
  O  O37  1  0.36346867  0.18173433  0.91942133  1
  O  O38  1  0.81826567  0.18173433  0.91942133  1
  O  O39  1  0.51506767  0.48493233  0.74724533  1
  O  O40  1  0.96986467  0.48493233  0.74724533  1
  O  O41  1  0.51506767  0.03013533  0.74724533  1
