# generated using pymatgen
data_Ti2Mn3Fe3O16
_symmetry_space_group_name_H-M   'P 1'
_cell_length_a   10.24901130
_cell_length_b   5.86343604
_cell_length_c   9.03491664
_cell_angle_alpha   90.00000000
_cell_angle_beta   91.71127519
_cell_angle_gamma   90.00000000
_symmetry_Int_Tables_number   1
_chemical_formula_structural   Ti2Mn3Fe3O16
_chemical_formula_sum   'Ti4 Mn6 Fe6 O32'
_cell_volume   542.70594192
_cell_formula_units_Z   2
loop_
 _symmetry_equiv_pos_site_id
 _symmetry_equiv_pos_as_xyz
  1  'x, y, z'
loop_
 _atom_site_type_symbol
 _atom_site_label
 _atom_site_symmetry_multiplicity
 _atom_site_fract_x
 _atom_site_fract_y
 _atom_site_fract_z
 _atom_site_occupancy
  Ti  Ti0  1  0.67395200  0.00000000  0.50019200  1
  Ti  Ti1  1  0.83753700  0.50000000  0.99914300  1
  Ti  Ti2  1  0.17395200  0.50000000  0.50019200  1
  Ti  Ti3  1  0.33753700  0.00000000  0.99914300  1
  Mn  Mn4  1  0.82849900  0.00000000  0.78696100  1
  Mn  Mn5  1  0.91597200  0.74697700  0.28817700  1
  Mn  Mn6  1  0.91597200  0.25302300  0.28817700  1
  Mn  Mn7  1  0.32849900  0.50000000  0.78696100  1
  Mn  Mn8  1  0.41597200  0.24697700  0.28817700  1
  Mn  Mn9  1  0.41597200  0.75302300  0.28817700  1
  Fe  Fe10  1  0.58230700  0.25134700  0.79011700  1
  Fe  Fe11  1  0.58230700  0.74865300  0.79011700  1
  Fe  Fe12  1  0.66512800  0.50000000  0.29074100  1
  Fe  Fe13  1  0.08230700  0.75134700  0.79011700  1
  Fe  Fe14  1  0.08230700  0.24865300  0.79011700  1
  Fe  Fe15  1  0.16512800  0.00000000  0.29074100  1
  O  O16  1  0.58273800  0.24683400  0.40068100  1
  O  O17  1  0.52379750  0.00000000  0.66063700  1
  O  O18  1  0.67180000  0.00000000  0.89956700  1
  O  O19  1  0.99149550  0.00000000  0.68621000  1
  O  O20  1  0.99280600  0.00000000  0.18542600  1
  O  O21  1  0.58273800  0.75316600  0.40068100  1
  O  O22  1  0.74055400  0.21392100  0.66024600  1
  O  O23  1  0.74055400  0.78607900  0.66024600  1
  O  O24  1  0.66716550  0.50000000  0.90168400  1
  O  O25  1  0.83310950  0.00000000  0.39610700  1
  O  O26  1  0.76250000  0.71495400  0.16391800  1
  O  O27  1  0.76250000  0.28504600  0.16391800  1
  O  O28  1  0.84009250  0.50000000  0.39953100  1
  O  O29  1  0.91175300  0.74841700  0.90208600  1
  O  O30  1  0.97803600  0.50000000  0.16737800  1
  O  O31  1  0.91175300  0.25158300  0.90208600  1
  O  O32  1  0.08273800  0.74683400  0.40068100  1
  O  O33  1  0.02379750  0.50000000  0.66063700  1
  O  O34  1  0.17180000  0.50000000  0.89956700  1
  O  O35  1  0.49149550  0.50000000  0.68621000  1
  O  O36  1  0.49280600  0.50000000  0.18542600  1
  O  O37  1  0.08273800  0.25316600  0.40068100  1
  O  O38  1  0.24055400  0.71392100  0.66024600  1
  O  O39  1  0.24055400  0.28607900  0.66024600  1
  O  O40  1  0.16716550  0.00000000  0.90168400  1
  O  O41  1  0.33310950  0.50000000  0.39610700  1
  O  O42  1  0.26250000  0.21495400  0.16391800  1
  O  O43  1  0.26250000  0.78504600  0.16391800  1
  O  O44  1  0.34009250  0.00000000  0.39953100  1
  O  O45  1  0.41175300  0.24841700  0.90208600  1
  O  O46  1  0.47803600  0.00000000  0.16737800  1
  O  O47  1  0.41175300  0.75158300  0.90208600  1
