# generated using pymatgen
data_LiMnCSO7
_symmetry_space_group_name_H-M   'P 1'
_cell_length_a   5.08923800
_cell_length_b   6.80486100
_cell_length_c   8.70744949
_cell_angle_alpha   90.00000000
_cell_angle_beta   94.73788876
_cell_angle_gamma   90.00000000
_symmetry_Int_Tables_number   1
_chemical_formula_structural   LiMnCSO7
_chemical_formula_sum   'Li2 Mn2 C2 S2 O14'
_cell_volume   300.52212527
_cell_formula_units_Z   2
loop_
 _symmetry_equiv_pos_site_id
 _symmetry_equiv_pos_as_xyz
  1  'x, y, z'
loop_
 _atom_site_type_symbol
 _atom_site_label
 _atom_site_symmetry_multiplicity
 _atom_site_fract_x
 _atom_site_fract_y
 _atom_site_fract_z
 _atom_site_occupancy
  Li  Li0  1  0.78884100  0.52299600  0.18379400  1
  Li  Li1  1  0.21115900  0.02299600  0.81620600  1
  Mn  Mn2  1  0.22682200  0.74687300  0.34599700  1
  Mn  Mn3  1  0.77317800  0.24687300  0.65400300  1
  C  C4  1  0.28064100  0.75099700  0.07277500  1
  C  C5  1  0.71935900  0.25099700  0.92722500  1
  S  S6  1  0.25246000  0.24303700  0.41704200  1
  S  S7  1  0.74754000  0.74303700  0.58295800  1
  O  O8  1  0.69070700  0.29141100  0.06273900  1
  O  O9  1  0.04959900  0.74050800  0.13335600  1
  O  O10  1  0.47620800  0.72181600  0.18139200  1
  O  O11  1  0.20094200  0.06560600  0.32496600  1
  O  O12  1  0.15889600  0.41805200  0.32835300  1
  O  O13  1  0.87210000  0.73231600  0.43284300  1
  O  O14  1  0.54537100  0.26423500  0.45887000  1
  O  O15  1  0.45462900  0.76423500  0.54113000  1
  O  O16  1  0.12790000  0.23231600  0.56715700  1
  O  O17  1  0.84110400  0.91805200  0.67164700  1
  O  O18  1  0.79905800  0.56560600  0.67503400  1
  O  O19  1  0.52379200  0.22181600  0.81860800  1
  O  O20  1  0.95040100  0.24050800  0.86664400  1
  O  O21  1  0.30929300  0.79141100  0.93726100  1
