# generated using pymatgen
data_P4WO12
_symmetry_space_group_name_H-M   'P 1'
_cell_length_a   15.34791800
_cell_length_b   7.42855000
_cell_length_c   9.66972422
_cell_angle_alpha   90.00000000
_cell_angle_beta   121.62128178
_cell_angle_gamma   90.00000000
_symmetry_Int_Tables_number   1
_chemical_formula_structural   P4WO12
_chemical_formula_sum   'P16 W4 O48'
_cell_volume   938.79054876
_cell_formula_units_Z   4
loop_
 _symmetry_equiv_pos_site_id
 _symmetry_equiv_pos_as_xyz
  1  'x, y, z'
loop_
 _atom_site_type_symbol
 _atom_site_label
 _atom_site_symmetry_multiplicity
 _atom_site_fract_x
 _atom_site_fract_y
 _atom_site_fract_z
 _atom_site_occupancy
  P  P0  1  0.12801650  0.43195550  0.63356200  1
  P  P1  1  0.64044050  0.67134850  0.17211400  1
  P  P2  1  0.14044050  0.82865150  0.67211400  1
  P  P3  1  0.37198350  0.93195550  0.86643800  1
  P  P4  1  0.62801650  0.06804450  0.13356200  1
  P  P5  1  0.85955950  0.17134850  0.32788600  1
  P  P6  1  0.35955950  0.32865150  0.82788600  1
  P  P7  1  0.87198350  0.56804450  0.36643800  1
  P  P8  1  0.62801650  0.93195550  0.63356200  1
  P  P9  1  0.14044050  0.17134850  0.17211400  1
  P  P10  1  0.64044050  0.32865150  0.67211400  1
  P  P11  1  0.87198350  0.43195550  0.86643800  1
  P  P12  1  0.12801650  0.56804450  0.13356200  1
  P  P13  1  0.35955950  0.67134850  0.32788600  1
  P  P14  1  0.85955950  0.82865150  0.82788600  1
  P  P15  1  0.37198350  0.06804450  0.36643800  1
  W  W16  1  0.00000000  0.14264000  0.75000000  1
  W  W17  1  0.00000000  0.85736000  0.25000000  1
  W  W18  1  0.50000000  0.64264000  0.75000000  1
  W  W19  1  0.50000000  0.35736000  0.25000000  1
  O  O20  1  0.24674800  0.38673600  0.70016800  1
  O  O21  1  0.92765900  0.06808600  0.28713900  1
  O  O22  1  0.07234100  0.06808600  0.21286100  1
  O  O23  1  0.14118750  0.62454950  0.72023900  1
  O  O24  1  0.61667300  0.64838000  0.00101100  1
  O  O25  1  0.90293150  0.30666150  0.77357000  1
  O  O26  1  0.09706850  0.30666150  0.72643000  1
  O  O27  1  0.11667300  0.85162000  0.50101100  1
  O  O28  1  0.64118750  0.87545050  0.22023900  1
  O  O29  1  0.25325200  0.88673600  0.79983200  1
  O  O30  1  0.07236900  0.43270100  0.45578100  1
  O  O31  1  0.92763100  0.43270100  0.04421900  1
  O  O32  1  0.07236900  0.56729900  0.95578100  1
  O  O33  1  0.92763100  0.56729900  0.54421900  1
  O  O34  1  0.74674800  0.11326400  0.20016800  1
  O  O35  1  0.35881250  0.12454950  0.77976100  1
  O  O36  1  0.88332700  0.14838000  0.49898900  1
  O  O37  1  0.90293150  0.69333850  0.27357000  1
  O  O38  1  0.09706850  0.69333850  0.22643000  1
  O  O39  1  0.38332700  0.35162000  0.99898900  1
  O  O40  1  0.85881250  0.37545050  0.27976100  1
  O  O41  1  0.92765900  0.93191400  0.78713900  1
  O  O42  1  0.07234100  0.93191400  0.71286100  1
  O  O43  1  0.75325200  0.61326400  0.29983200  1
  O  O44  1  0.74674800  0.88673600  0.70016800  1
  O  O45  1  0.42765900  0.56808600  0.28713900  1
  O  O46  1  0.57234100  0.56808600  0.21286100  1
  O  O47  1  0.64118750  0.12454950  0.72023900  1
  O  O48  1  0.11667300  0.14838000  0.00101100  1
  O  O49  1  0.40293150  0.80666150  0.77357000  1
  O  O50  1  0.59706850  0.80666150  0.72643000  1
  O  O51  1  0.61667300  0.35162000  0.50101100  1
  O  O52  1  0.14118750  0.37545050  0.22023900  1
  O  O53  1  0.75325200  0.38673600  0.79983200  1
  O  O54  1  0.57236900  0.93270100  0.45578100  1
  O  O55  1  0.42763100  0.93270100  0.04421900  1
  O  O56  1  0.57236900  0.06729900  0.95578100  1
  O  O57  1  0.42763100  0.06729900  0.54421900  1
  O  O58  1  0.24674800  0.61326400  0.20016800  1
  O  O59  1  0.85881250  0.62454950  0.77976100  1
  O  O60  1  0.38332700  0.64838000  0.49898900  1
  O  O61  1  0.40293150  0.19333850  0.27357000  1
  O  O62  1  0.59706850  0.19333850  0.22643000  1
  O  O63  1  0.88332700  0.85162000  0.99898900  1
  O  O64  1  0.35881250  0.87545050  0.27976100  1
  O  O65  1  0.42765900  0.43191400  0.78713900  1
  O  O66  1  0.57234100  0.43191400  0.71286100  1
  O  O67  1  0.25325200  0.11326400  0.29983200  1
