# generated using pymatgen
data_Na2Li4Co2C4SO16
_symmetry_space_group_name_H-M   'P 1'
_cell_length_a   13.24804400
_cell_length_b   13.87763000
_cell_length_c   13.91311200
_cell_angle_alpha   90.00000000
_cell_angle_beta   90.00000000
_cell_angle_gamma   90.00000000
_symmetry_Int_Tables_number   1
_chemical_formula_structural   Na2Li4Co2C4SO16
_chemical_formula_sum   'Na16 Li32 Co16 C32 S8 O128'
_cell_volume   2557.94585494
_cell_formula_units_Z   8
loop_
 _symmetry_equiv_pos_site_id
 _symmetry_equiv_pos_as_xyz
  1  'x, y, z'
loop_
 _atom_site_type_symbol
 _atom_site_label
 _atom_site_symmetry_multiplicity
 _atom_site_fract_x
 _atom_site_fract_y
 _atom_site_fract_z
 _atom_site_occupancy
  Na  Na0  1  0.75000000  0.75000000  0.47207200  1
  Na  Na1  1  0.00000000  0.00000000  0.22207200  1
  Na  Na2  1  0.75000000  0.75000000  0.02792800  1
  Na  Na3  1  0.50000000  0.00000000  0.27792800  1
  Na  Na4  1  0.75000000  0.25000000  0.97207200  1
  Na  Na5  1  0.00000000  0.50000000  0.72207200  1
  Na  Na6  1  0.75000000  0.25000000  0.52792800  1
  Na  Na7  1  0.50000000  0.50000000  0.77792800  1
  Na  Na8  1  0.25000000  0.75000000  0.97207200  1
  Na  Na9  1  0.50000000  0.00000000  0.72207200  1
  Na  Na10  1  0.25000000  0.75000000  0.52792800  1
  Na  Na11  1  0.00000000  0.00000000  0.77792800  1
  Na  Na12  1  0.25000000  0.25000000  0.47207200  1
  Na  Na13  1  0.50000000  0.50000000  0.22207200  1
  Na  Na14  1  0.25000000  0.25000000  0.02792800  1
  Na  Na15  1  0.00000000  0.50000000  0.27792800  1
  Li  Li16  1  0.22218750  0.04787050  0.11741900  1
  Li  Li17  1  0.02781250  0.29787050  0.36741900  1
  Li  Li18  1  0.27781250  0.04787050  0.38258100  1
  Li  Li19  1  0.47218750  0.29787050  0.13258100  1
  Li  Li20  1  0.77781250  0.95212950  0.11741900  1
  Li  Li21  1  0.97218750  0.70212950  0.36741900  1
  Li  Li22  1  0.72218750  0.95212950  0.38258100  1
  Li  Li23  1  0.52781250  0.70212950  0.13258100  1
  Li  Li24  1  0.22218750  0.54787050  0.61741900  1
  Li  Li25  1  0.02781250  0.79787050  0.86741900  1
  Li  Li26  1  0.27781250  0.54787050  0.88258100  1
  Li  Li27  1  0.47218750  0.79787050  0.63258100  1
  Li  Li28  1  0.77781250  0.45212950  0.61741900  1
  Li  Li29  1  0.97218750  0.20212950  0.86741900  1
  Li  Li30  1  0.72218750  0.45212950  0.88258100  1
  Li  Li31  1  0.52781250  0.20212950  0.63258100  1
  Li  Li32  1  0.72218750  0.04787050  0.61741900  1
  Li  Li33  1  0.52781250  0.29787050  0.86741900  1
  Li  Li34  1  0.77781250  0.04787050  0.88258100  1
  Li  Li35  1  0.97218750  0.29787050  0.63258100  1
  Li  Li36  1  0.27781250  0.95212950  0.61741900  1
  Li  Li37  1  0.47218750  0.70212950  0.86741900  1
  Li  Li38  1  0.22218750  0.95212950  0.88258100  1
  Li  Li39  1  0.02781250  0.70212950  0.63258100  1
  Li  Li40  1  0.72218750  0.54787050  0.11741900  1
  Li  Li41  1  0.52781250  0.79787050  0.36741900  1
  Li  Li42  1  0.77781250  0.54787050  0.38258100  1
  Li  Li43  1  0.97218750  0.79787050  0.13258100  1
  Li  Li44  1  0.27781250  0.45212950  0.11741900  1
  Li  Li45  1  0.47218750  0.20212950  0.36741900  1
  Li  Li46  1  0.22218750  0.45212950  0.38258100  1
  Li  Li47  1  0.02781250  0.20212950  0.13258100  1
  Co  Co48  1  0.37500000  0.87500000  0.12500000  1
  Co  Co49  1  0.12500000  0.87500000  0.37500000  1
  Co  Co50  1  0.62500000  0.12500000  0.12500000  1
  Co  Co51  1  0.87500000  0.12500000  0.37500000  1
  Co  Co52  1  0.37500000  0.37500000  0.62500000  1
  Co  Co53  1  0.12500000  0.37500000  0.87500000  1
  Co  Co54  1  0.62500000  0.62500000  0.62500000  1
  Co  Co55  1  0.87500000  0.62500000  0.87500000  1
  Co  Co56  1  0.87500000  0.87500000  0.62500000  1
  Co  Co57  1  0.62500000  0.87500000  0.87500000  1
  Co  Co58  1  0.12500000  0.12500000  0.62500000  1
  Co  Co59  1  0.37500000  0.12500000  0.87500000  1
  Co  Co60  1  0.87500000  0.37500000  0.12500000  1
  Co  Co61  1  0.62500000  0.37500000  0.37500000  1
  Co  Co62  1  0.12500000  0.62500000  0.12500000  1
  Co  Co63  1  0.37500000  0.62500000  0.37500000  1
  C  C64  1  0.65044200  0.34529250  0.15644650  1
  C  C65  1  0.09955800  0.09529250  0.40644650  1
  C  C66  1  0.84955800  0.15470750  0.15644650  1
  C  C67  1  0.84955800  0.34529250  0.34355350  1
  C  C68  1  0.90044200  0.90470750  0.40644650  1
  C  C69  1  0.40044200  0.09529250  0.09355350  1
  C  C70  1  0.65044200  0.15470750  0.34355350  1
  C  C71  1  0.59955800  0.90470750  0.09355350  1
  C  C72  1  0.65044200  0.84529250  0.65644650  1
  C  C73  1  0.09955800  0.59529250  0.90644650  1
  C  C74  1  0.84955800  0.65470750  0.65644650  1
  C  C75  1  0.84955800  0.84529250  0.84355350  1
  C  C76  1  0.90044200  0.40470750  0.90644650  1
  C  C77  1  0.40044200  0.59529250  0.59355350  1
  C  C78  1  0.65044200  0.65470750  0.84355350  1
  C  C79  1  0.59955800  0.40470750  0.59355350  1
  C  C80  1  0.15044200  0.34529250  0.65644650  1
  C  C81  1  0.59955800  0.09529250  0.90644650  1
  C  C82  1  0.34955800  0.15470750  0.65644650  1
  C  C83  1  0.34955800  0.34529250  0.84355350  1
  C  C84  1  0.40044200  0.90470750  0.90644650  1
  C  C85  1  0.90044200  0.09529250  0.59355350  1
  C  C86  1  0.15044200  0.15470750  0.84355350  1
  C  C87  1  0.09955800  0.90470750  0.59355350  1
  C  C88  1  0.15044200  0.84529250  0.15644650  1
  C  C89  1  0.59955800  0.59529250  0.40644650  1
  C  C90  1  0.34955800  0.65470750  0.15644650  1
  C  C91  1  0.34955800  0.84529250  0.34355350  1
  C  C92  1  0.40044200  0.40470750  0.40644650  1
  C  C93  1  0.90044200  0.59529250  0.09355350  1
  C  C94  1  0.15044200  0.65470750  0.34355350  1
  C  C95  1  0.09955800  0.40470750  0.09355350  1
  S  S96  1  0.00000000  0.00000000  0.00000000  1
  S  S97  1  0.75000000  0.75000000  0.25000000  1
  S  S98  1  0.00000000  0.50000000  0.50000000  1
  S  S99  1  0.75000000  0.25000000  0.75000000  1
  S  S100  1  0.50000000  0.00000000  0.50000000  1
  S  S101  1  0.25000000  0.75000000  0.75000000  1
  S  S102  1  0.50000000  0.50000000  0.00000000  1
  S  S103  1  0.25000000  0.25000000  0.25000000  1
  O  O104  1  0.93533250  0.56230050  0.43699100  1
  O  O105  1  0.91768600  0.35766050  0.27786150  1
  O  O106  1  0.56466750  0.93769950  0.43699100  1
  O  O107  1  0.56466750  0.56230050  0.06300900  1
  O  O108  1  0.91768600  0.14233950  0.22213850  1
  O  O109  1  0.93533250  0.93769950  0.06300900  1
  O  O110  1  0.72345250  0.40697500  0.14820450  1
  O  O111  1  0.02654750  0.15697500  0.39820450  1
  O  O112  1  0.64178200  0.27389300  0.09755100  1
  O  O113  1  0.10821800  0.02389300  0.34755100  1
  O  O114  1  0.85821800  0.22610700  0.09755100  1
  O  O115  1  0.58231400  0.35766050  0.22213850  1
  O  O116  1  0.89178200  0.97610700  0.34755100  1
  O  O117  1  0.16768600  0.10766050  0.47213850  1
  O  O118  1  0.77654750  0.40697500  0.35179550  1
  O  O119  1  0.47345250  0.15697500  0.10179550  1
  O  O120  1  0.77654750  0.09302500  0.14820450  1
  O  O121  1  0.97345250  0.84302500  0.39820450  1
  O  O122  1  0.58231400  0.14233950  0.27786150  1
  O  O123  1  0.85821800  0.27389300  0.40244900  1
  O  O124  1  0.66768600  0.89233950  0.02786150  1
  O  O125  1  0.39178200  0.02389300  0.15244900  1
  O  O126  1  0.64178200  0.22610700  0.40244900  1
  O  O127  1  0.60821800  0.97610700  0.15244900  1
  O  O128  1  0.72345250  0.09302500  0.35179550  1
  O  O129  1  0.52654750  0.84302500  0.10179550  1
  O  O130  1  0.81466750  0.81230050  0.18699100  1
  O  O131  1  0.33231400  0.10766050  0.02786150  1
  O  O132  1  0.68533250  0.68769950  0.18699100  1
  O  O133  1  0.68533250  0.81230050  0.31300900  1
  O  O134  1  0.83231400  0.89233950  0.47213850  1
  O  O135  1  0.81466750  0.68769950  0.31300900  1
  O  O136  1  0.93533250  0.06230050  0.93699100  1
  O  O137  1  0.91768600  0.85766050  0.77786150  1
  O  O138  1  0.56466750  0.43769950  0.93699100  1
  O  O139  1  0.56466750  0.06230050  0.56300900  1
  O  O140  1  0.91768600  0.64233950  0.72213850  1
  O  O141  1  0.93533250  0.43769950  0.56300900  1
  O  O142  1  0.72345250  0.90697500  0.64820450  1
  O  O143  1  0.02654750  0.65697500  0.89820450  1
  O  O144  1  0.64178200  0.77389300  0.59755100  1
  O  O145  1  0.10821800  0.52389300  0.84755100  1
  O  O146  1  0.85821800  0.72610700  0.59755100  1
  O  O147  1  0.58231400  0.85766050  0.72213850  1
  O  O148  1  0.89178200  0.47610700  0.84755100  1
  O  O149  1  0.16768600  0.60766050  0.97213850  1
  O  O150  1  0.77654750  0.90697500  0.85179550  1
  O  O151  1  0.47345250  0.65697500  0.60179550  1
  O  O152  1  0.77654750  0.59302500  0.64820450  1
  O  O153  1  0.97345250  0.34302500  0.89820450  1
  O  O154  1  0.58231400  0.64233950  0.77786150  1
  O  O155  1  0.85821800  0.77389300  0.90244900  1
  O  O156  1  0.66768600  0.39233950  0.52786150  1
  O  O157  1  0.39178200  0.52389300  0.65244900  1
  O  O158  1  0.64178200  0.72610700  0.90244900  1
  O  O159  1  0.60821800  0.47610700  0.65244900  1
  O  O160  1  0.72345250  0.59302500  0.85179550  1
  O  O161  1  0.52654750  0.34302500  0.60179550  1
  O  O162  1  0.81466750  0.31230050  0.68699100  1
  O  O163  1  0.33231400  0.60766050  0.52786150  1
  O  O164  1  0.68533250  0.18769950  0.68699100  1
  O  O165  1  0.68533250  0.31230050  0.81300900  1
  O  O166  1  0.83231400  0.39233950  0.97213850  1
  O  O167  1  0.81466750  0.18769950  0.81300900  1
  O  O168  1  0.43533250  0.56230050  0.93699100  1
  O  O169  1  0.41768600  0.35766050  0.77786150  1
  O  O170  1  0.06466750  0.93769950  0.93699100  1
  O  O171  1  0.06466750  0.56230050  0.56300900  1
  O  O172  1  0.41768600  0.14233950  0.72213850  1
  O  O173  1  0.43533250  0.93769950  0.56300900  1
  O  O174  1  0.22345250  0.40697500  0.64820450  1
  O  O175  1  0.52654750  0.15697500  0.89820450  1
  O  O176  1  0.14178200  0.27389300  0.59755100  1
  O  O177  1  0.60821800  0.02389300  0.84755100  1
  O  O178  1  0.35821800  0.22610700  0.59755100  1
  O  O179  1  0.08231400  0.35766050  0.72213850  1
  O  O180  1  0.39178200  0.97610700  0.84755100  1
  O  O181  1  0.66768600  0.10766050  0.97213850  1
  O  O182  1  0.27654750  0.40697500  0.85179550  1
  O  O183  1  0.97345250  0.15697500  0.60179550  1
  O  O184  1  0.27654750  0.09302500  0.64820450  1
  O  O185  1  0.47345250  0.84302500  0.89820450  1
  O  O186  1  0.08231400  0.14233950  0.77786150  1
  O  O187  1  0.35821800  0.27389300  0.90244900  1
  O  O188  1  0.16768600  0.89233950  0.52786150  1
  O  O189  1  0.89178200  0.02389300  0.65244900  1
  O  O190  1  0.14178200  0.22610700  0.90244900  1
  O  O191  1  0.10821800  0.97610700  0.65244900  1
  O  O192  1  0.22345250  0.09302500  0.85179550  1
  O  O193  1  0.02654750  0.84302500  0.60179550  1
  O  O194  1  0.31466750  0.81230050  0.68699100  1
  O  O195  1  0.83231400  0.10766050  0.52786150  1
  O  O196  1  0.18533250  0.68769950  0.68699100  1
  O  O197  1  0.18533250  0.81230050  0.81300900  1
  O  O198  1  0.33231400  0.89233950  0.97213850  1
  O  O199  1  0.31466750  0.68769950  0.81300900  1
  O  O200  1  0.43533250  0.06230050  0.43699100  1
  O  O201  1  0.41768600  0.85766050  0.27786150  1
  O  O202  1  0.06466750  0.43769950  0.43699100  1
  O  O203  1  0.06466750  0.06230050  0.06300900  1
  O  O204  1  0.41768600  0.64233950  0.22213850  1
  O  O205  1  0.43533250  0.43769950  0.06300900  1
  O  O206  1  0.22345250  0.90697500  0.14820450  1
  O  O207  1  0.52654750  0.65697500  0.39820450  1
  O  O208  1  0.14178200  0.77389300  0.09755100  1
  O  O209  1  0.60821800  0.52389300  0.34755100  1
  O  O210  1  0.35821800  0.72610700  0.09755100  1
  O  O211  1  0.08231400  0.85766050  0.22213850  1
  O  O212  1  0.39178200  0.47610700  0.34755100  1
  O  O213  1  0.66768600  0.60766050  0.47213850  1
  O  O214  1  0.27654750  0.90697500  0.35179550  1
  O  O215  1  0.97345250  0.65697500  0.10179550  1
  O  O216  1  0.27654750  0.59302500  0.14820450  1
  O  O217  1  0.47345250  0.34302500  0.39820450  1
  O  O218  1  0.08231400  0.64233950  0.27786150  1
  O  O219  1  0.35821800  0.77389300  0.40244900  1
  O  O220  1  0.16768600  0.39233950  0.02786150  1
  O  O221  1  0.89178200  0.52389300  0.15244900  1
  O  O222  1  0.14178200  0.72610700  0.40244900  1
  O  O223  1  0.10821800  0.47610700  0.15244900  1
  O  O224  1  0.22345250  0.59302500  0.35179550  1
  O  O225  1  0.02654750  0.34302500  0.10179550  1
  O  O226  1  0.31466750  0.31230050  0.18699100  1
  O  O227  1  0.83231400  0.60766050  0.02786150  1
  O  O228  1  0.18533250  0.18769950  0.18699100  1
  O  O229  1  0.18533250  0.31230050  0.31300900  1
  O  O230  1  0.33231400  0.39233950  0.47213850  1
  O  O231  1  0.31466750  0.18769950  0.31300900  1
