# generated using pymatgen
data_Li4Mn3Cr3(NiO8)2
_symmetry_space_group_name_H-M   'P 1'
_cell_length_a   10.07134400
_cell_length_b   5.80970600
_cell_length_c   9.61678665
_cell_angle_alpha   90.00000000
_cell_angle_beta   90.29288531
_cell_angle_gamma   90.00000000
_symmetry_Int_Tables_number   1
_chemical_formula_structural   Li4Mn3Cr3(NiO8)2
_chemical_formula_sum   'Li8 Mn6 Cr6 Ni4 O32'
_cell_volume   562.68571848
_cell_formula_units_Z   2
loop_
 _symmetry_equiv_pos_site_id
 _symmetry_equiv_pos_as_xyz
  1  'x, y, z'
loop_
 _atom_site_type_symbol
 _atom_site_label
 _atom_site_symmetry_multiplicity
 _atom_site_fract_x
 _atom_site_fract_y
 _atom_site_fract_z
 _atom_site_occupancy
  Li  Li0  1  0.66839200  0.00000000  0.89106600  1
  Li  Li1  1  0.99894100  0.00000000  0.99856000  1
  Li  Li2  1  0.99921100  0.00000000  0.49765100  1
  Li  Li3  1  0.83524300  0.50000000  0.39171200  1
  Li  Li4  1  0.16839200  0.50000000  0.89106600  1
  Li  Li5  1  0.49894100  0.50000000  0.99856000  1
  Li  Li6  1  0.49921100  0.50000000  0.49765100  1
  Li  Li7  1  0.33524300  0.00000000  0.39171200  1
  Mn  Mn8  1  0.82875000  0.00000000  0.21689200  1
  Mn  Mn9  1  0.91416000  0.74637400  0.71534400  1
  Mn  Mn10  1  0.91416000  0.25362600  0.71534400  1
  Mn  Mn11  1  0.32875000  0.50000000  0.21689200  1
  Mn  Mn12  1  0.41416000  0.24637400  0.71534400  1
  Mn  Mn13  1  0.41416000  0.75362600  0.71534400  1
  Cr  Cr14  1  0.58250850  0.24758450  0.21342500  1
  Cr  Cr15  1  0.58250850  0.75241550  0.21342500  1
  Cr  Cr16  1  0.66656800  0.50000000  0.71119900  1
  Cr  Cr17  1  0.08250850  0.74758450  0.21342500  1
  Cr  Cr18  1  0.08250850  0.25241550  0.21342500  1
  Cr  Cr19  1  0.16656800  0.00000000  0.71119900  1
  Ni  Ni20  1  0.66722700  0.00000000  0.49071700  1
  Ni  Ni21  1  0.83273300  0.50000000  0.98720100  1
  Ni  Ni22  1  0.16722700  0.50000000  0.49071700  1
  Ni  Ni23  1  0.33273300  0.00000000  0.98720100  1
  O  O24  1  0.58128300  0.26294300  0.60914300  1
  O  O25  1  0.52044000  0.00000000  0.32947000  1
  O  O26  1  0.67007200  0.00000000  0.10456900  1
  O  O27  1  0.99590200  0.00000000  0.31401100  1
  O  O28  1  0.99612600  0.00000000  0.81328800  1
  O  O29  1  0.58128300  0.73705700  0.60914300  1
  O  O30  1  0.74063250  0.22382150  0.32953600  1
  O  O31  1  0.74063250  0.77617850  0.32953600  1
  O  O32  1  0.66024000  0.50000000  0.11114200  1
  O  O33  1  0.84262200  0.00000000  0.60540600  1
  O  O34  1  0.75873150  0.72203550  0.82813500  1
  O  O35  1  0.75873150  0.27796450  0.82813500  1
  O  O36  1  0.83697000  0.50000000  0.60614200  1
  O  O37  1  0.92213650  0.75923050  0.10890300  1
  O  O38  1  0.98278100  0.50000000  0.82981100  1
  O  O39  1  0.92213650  0.24076950  0.10890300  1
  O  O40  1  0.08128300  0.76294300  0.60914300  1
  O  O41  1  0.02044000  0.50000000  0.32947000  1
  O  O42  1  0.17007200  0.50000000  0.10456900  1
  O  O43  1  0.49590200  0.50000000  0.31401100  1
  O  O44  1  0.49612600  0.50000000  0.81328800  1
  O  O45  1  0.08128300  0.23705700  0.60914300  1
  O  O46  1  0.24063250  0.72382150  0.32953600  1
  O  O47  1  0.24063250  0.27617850  0.32953600  1
  O  O48  1  0.16024000  0.00000000  0.11114200  1
  O  O49  1  0.34262200  0.50000000  0.60540600  1
  O  O50  1  0.25873150  0.22203550  0.82813500  1
  O  O51  1  0.25873150  0.77796450  0.82813500  1
  O  O52  1  0.33697000  0.00000000  0.60614200  1
  O  O53  1  0.42213650  0.25923050  0.10890300  1
  O  O54  1  0.48278100  0.00000000  0.82981100  1
  O  O55  1  0.42213650  0.74076950  0.10890300  1
