# generated using pymatgen
data_CoPH6NO5
_symmetry_space_group_name_H-M   'P 1'
_cell_length_a   4.81114182
_cell_length_b   5.66563620
_cell_length_c   8.93354808
_cell_angle_alpha   90.00000000
_cell_angle_beta   90.00000000
_cell_angle_gamma   90.00000000
_symmetry_Int_Tables_number   1
_chemical_formula_structural   CoPH6NO5
_chemical_formula_sum   'Co2 P2 H12 N2 O10'
_cell_volume   243.51225481
_cell_formula_units_Z   2
loop_
 _symmetry_equiv_pos_site_id
 _symmetry_equiv_pos_as_xyz
  1  'x, y, z'
loop_
 _atom_site_type_symbol
 _atom_site_label
 _atom_site_symmetry_multiplicity
 _atom_site_fract_x
 _atom_site_fract_y
 _atom_site_fract_z
 _atom_site_occupancy
  Co  Co0  1  0.47709050  0.50000000  0.02554925  1
  Co  Co1  1  0.97709050  0.00000000  0.97445075  1
  P  P2  1  0.90714650  0.50000000  0.80842225  1
  P  P3  1  0.40714650  0.00000000  0.19157775  1
  H  H4  1  0.16797550  0.50000000  0.54318575  1
  H  H5  1  0.66797550  0.00000000  0.45681425  1
  H  H6  1  0.52778100  0.50000000  0.54736875  1
  H  H7  1  0.02778100  0.00000000  0.45263125  1
  H  H8  1  0.35458000  0.34895825  0.41183775  1
  H  H9  1  0.35458000  0.65104175  0.41183775  1
  H  H10  1  0.85458000  0.15104175  0.58816225  1
  H  H11  1  0.85458000  0.84895825  0.58816225  1
  H  H12  1  0.90510050  0.36087975  0.18568475  1
  H  H13  1  0.90510050  0.63912025  0.18568475  1
  H  H14  1  0.40510050  0.13912025  0.81431525  1
  H  H15  1  0.40510050  0.86087975  0.81431525  1
  N  N16  1  0.35100000  0.50000000  0.47771375  1
  N  N17  1  0.85100000  0.00000000  0.52228625  1
  O  O18  1  0.22007900  0.50000000  0.83798675  1
  O  O19  1  0.72007900  0.00000000  0.16201325  1
  O  O20  1  0.85378600  0.50000000  0.63627725  1
  O  O21  1  0.35378600  0.00000000  0.36372275  1
  O  O22  1  0.78384000  0.50000000  0.20098025  1
  O  O23  1  0.28384000  0.00000000  0.79901975  1
  O  O24  1  0.75766850  0.28154175  0.88336625  1
  O  O25  1  0.75766850  0.71845825  0.88336625  1
  O  O26  1  0.25766850  0.21845825  0.11663375  1
  O  O27  1  0.25766850  0.78154175  0.11663375  1
