# generated using pymatgen
data_Ti3CrSn2(PO4)6
_symmetry_space_group_name_H-M   'P 1'
_cell_length_a   8.63413624
_cell_length_b   8.63413624
_cell_length_c   22.52480773
_cell_angle_alpha   90.00000000
_cell_angle_beta   90.00000000
_cell_angle_gamma   120.00000000
_symmetry_Int_Tables_number   1
_chemical_formula_structural   Ti3CrSn2(PO4)6
_chemical_formula_sum   'Ti9 Cr3 Sn6 P18 O72'
_cell_volume   1454.21800968
_cell_formula_units_Z   3
loop_
 _symmetry_equiv_pos_site_id
 _symmetry_equiv_pos_as_xyz
  1  'x, y, z'
loop_
 _atom_site_type_symbol
 _atom_site_label
 _atom_site_symmetry_multiplicity
 _atom_site_fract_x
 _atom_site_fract_y
 _atom_site_fract_z
 _atom_site_occupancy
  Ti  Ti0  1  0.00000000  0.00000000  0.14704000  1
  Ti  Ti1  1  0.33333333  0.66666667  0.01785367  1
  Ti  Ti2  1  0.33333333  0.66666667  0.31555367  1
  Ti  Ti3  1  0.66666667  0.33333333  0.48037333  1
  Ti  Ti4  1  0.00000000  0.00000000  0.35118700  1
  Ti  Ti5  1  0.00000000  0.00000000  0.64888700  1
  Ti  Ti6  1  0.33333333  0.66666667  0.81370667  1
  Ti  Ti7  1  0.66666667  0.33333333  0.68452033  1
  Ti  Ti8  1  0.66666667  0.33333333  0.98222033  1
  Cr  Cr9  1  0.66666667  0.33333333  0.18643133  1
  Cr  Cr10  1  0.33333333  0.66666667  0.51976467  1
  Cr  Cr11  1  0.00000000  0.00000000  0.85309800  1
  Sn  Sn12  1  0.66666667  0.33333333  0.33047133  1
  Sn  Sn13  1  0.33333333  0.66666667  0.16525567  1
  Sn  Sn14  1  0.33333333  0.66666667  0.66380467  1
  Sn  Sn15  1  0.00000000  0.00000000  0.49858900  1
  Sn  Sn16  1  0.00000000  0.00000000  0.99713800  1
  Sn  Sn17  1  0.66666667  0.33333333  0.83192233  1
  P  P18  1  0.38075933  0.04671267  0.08442167  1
  P  P19  1  0.66595333  0.61924067  0.08442167  1
  P  P20  1  0.71177633  0.00023967  0.24958167  1
  P  P21  1  0.99976033  0.71153667  0.24958167  1
  P  P22  1  0.28846333  0.28822367  0.24958167  1
  P  P23  1  0.95328733  0.33404667  0.08442167  1
  P  P24  1  0.04742600  0.38004600  0.41775500  1
  P  P25  1  0.33262000  0.95257400  0.41775500  1
  P  P26  1  0.37844300  0.33357300  0.58291500  1
  P  P27  1  0.66642700  0.04487000  0.58291500  1
  P  P28  1  0.95513000  0.62155700  0.58291500  1
  P  P29  1  0.61995400  0.66738000  0.41775500  1
  P  P30  1  0.71409267  0.71337933  0.75108833  1
  P  P31  1  0.99928667  0.28590733  0.75108833  1
  P  P32  1  0.04510967  0.66690633  0.91624833  1
  P  P33  1  0.33309367  0.37820333  0.91624833  1
  P  P34  1  0.62179667  0.95489033  0.91624833  1
  P  P35  1  0.28662067  0.00071333  0.75108833  1
  O  O36  1  0.19765333  0.18089867  0.30633267  1
  O  O37  1  0.81910133  0.01675467  0.30633267  1
  O  O38  1  0.19191533  0.02640367  0.08781167  1
  O  O39  1  0.98324533  0.80234667  0.30633267  1
  O  O40  1  0.48691633  0.13021867  0.14081267  1
  O  O41  1  0.35825233  0.85691567  0.07820367  1
  O  O42  1  0.83448833  0.80808467  0.08781167  1
  O  O43  1  0.49866333  0.64174767  0.07820367  1
  O  O44  1  0.80141167  0.98212733  0.19298733  1
  O  O45  1  0.14308433  0.50133667  0.07820367  1
  O  O46  1  0.69326433  0.16934667  0.24636567  1
  O  O47  1  0.01787267  0.81928433  0.19298733  1
  O  O48  1  0.64330233  0.51308367  0.14081267  1
  O  O49  1  0.97359633  0.16551167  0.08781167  1
  O  O50  1  0.52396967  0.83061633  0.25450533  1
  O  O51  1  0.86978133  0.35669767  0.14081267  1
  O  O52  1  0.16938367  0.69335333  0.25450533  1
  O  O53  1  0.83065333  0.52391767  0.24636567  1
  O  O54  1  0.30664667  0.47603033  0.25450533  1
  O  O55  1  0.18071567  0.19858833  0.19298733  1
  O  O56  1  0.68464667  0.52991133  0.02699833  1
  O  O57  1  0.47608233  0.30673567  0.24636567  1
  O  O58  1  0.84526467  0.31535333  0.02699833  1
  O  O59  1  0.47008867  0.15473533  0.02699833  1
  O  O60  1  0.86432000  0.51423200  0.63966600  1
  O  O61  1  0.48576800  0.35008800  0.63966600  1
  O  O62  1  0.85858200  0.35973700  0.42114500  1
  O  O63  1  0.64991200  0.13568000  0.63966600  1
  O  O64  1  0.15358300  0.46355200  0.47414600  1
  O  O65  1  0.02491900  0.19024900  0.41153700  1
  O  O66  1  0.50115500  0.14141800  0.42114500  1
  O  O67  1  0.16533000  0.97508100  0.41153700  1
  O  O68  1  0.46807833  0.31546067  0.52632067  1
  O  O69  1  0.80975100  0.83467000  0.41153700  1
  O  O70  1  0.35993100  0.50268000  0.57969900  1
  O  O71  1  0.68453933  0.15261767  0.52632067  1
  O  O72  1  0.30996900  0.84641700  0.47414600  1
  O  O73  1  0.64026300  0.49884500  0.42114500  1
  O  O74  1  0.19063633  0.16394967  0.58783867  1
  O  O75  1  0.53644800  0.69003100  0.47414600  1
  O  O76  1  0.83605033  0.02668667  0.58783867  1
  O  O77  1  0.49732000  0.85725100  0.57969900  1
  O  O78  1  0.97331333  0.80936367  0.58783867  1
  O  O79  1  0.84738233  0.53192167  0.52632067  1
  O  O80  1  0.35131333  0.86324467  0.36033167  1
  O  O81  1  0.14274900  0.64006900  0.57969900  1
  O  O82  1  0.51193133  0.64868667  0.36033167  1
  O  O83  1  0.13675533  0.48806867  0.36033167  1
  O  O84  1  0.53098667  0.84756533  0.97299933  1
  O  O85  1  0.15243467  0.68342133  0.97299933  1
  O  O86  1  0.52524867  0.69307033  0.75447833  1
  O  O87  1  0.31657867  0.46901333  0.97299933  1
  O  O88  1  0.82024967  0.79688533  0.80747933  1
  O  O89  1  0.69158567  0.52358233  0.74487033  1
  O  O90  1  0.16782167  0.47475133  0.75447833  1
  O  O91  1  0.83199667  0.30841433  0.74487033  1
  O  O92  1  0.13474500  0.64879400  0.85965400  1
  O  O93  1  0.47641767  0.16800333  0.74487033  1
  O  O94  1  0.02659767  0.83601333  0.91303233  1
  O  O95  1  0.35120600  0.48595100  0.85965400  1
  O  O96  1  0.97663567  0.17975033  0.80747933  1
  O  O97  1  0.30692967  0.83217833  0.75447833  1
  O  O98  1  0.85730300  0.49728300  0.92117200  1
  O  O99  1  0.20311467  0.02336433  0.80747933  1
  O  O100  1  0.50271700  0.36002000  0.92117200  1
  O  O101  1  0.16398667  0.19058433  0.91303233  1
  O  O102  1  0.63998000  0.14269700  0.92117200  1
  O  O103  1  0.51404900  0.86525500  0.85965400  1
  O  O104  1  0.01798000  0.19657800  0.69366500  1
  O  O105  1  0.80941567  0.97340233  0.91303233  1
  O  O106  1  0.17859800  0.98202000  0.69366500  1
  O  O107  1  0.80342200  0.82140200  0.69366500  1
