# generated using pymatgen
data_Co2O3F
_symmetry_space_group_name_H-M   'P 1'
_cell_length_a   8.47329600
_cell_length_b   6.34939000
_cell_length_c   8.48607876
_cell_angle_alpha   90.00000000
_cell_angle_beta   91.12671486
_cell_angle_gamma   90.00000000
_symmetry_Int_Tables_number   1
_chemical_formula_structural   Co2O3F
_chemical_formula_sum   'Co16 O24 F8'
_cell_volume   456.46497790
_cell_formula_units_Z   8
loop_
 _symmetry_equiv_pos_site_id
 _symmetry_equiv_pos_as_xyz
  1  'x, y, z'
loop_
 _atom_site_type_symbol
 _atom_site_label
 _atom_site_symmetry_multiplicity
 _atom_site_fract_x
 _atom_site_fract_y
 _atom_site_fract_z
 _atom_site_occupancy
  Co  Co0  1  0.12464050  0.98244950  0.62556000  1
  Co  Co1  1  0.37470850  0.00021450  0.87541600  1
  Co  Co2  1  0.50000000  0.01646000  0.50000000  1
  Co  Co3  1  0.74959600  0.02300200  0.74885300  1
  Co  Co4  1  0.25040400  0.02300200  0.25114700  1
  Co  Co5  1  0.87535950  0.98244950  0.37444000  1
  Co  Co6  1  0.62529150  0.00021450  0.12458400  1
  Co  Co7  1  0.50000000  0.46888000  0.00000000  1
  Co  Co8  1  0.62464050  0.48244950  0.62556000  1
  Co  Co9  1  0.87470850  0.50021450  0.87541600  1
  Co  Co10  1  0.00000000  0.51646000  0.50000000  1
  Co  Co11  1  0.24959600  0.52300200  0.74885300  1
  Co  Co12  1  0.75040400  0.52300200  0.25114700  1
  Co  Co13  1  0.37535950  0.48244950  0.37444000  1
  Co  Co14  1  0.12529150  0.50021450  0.12458400  1
  Co  Co15  1  0.00000000  0.96888000  0.00000000  1
  O  O16  1  0.25071350  0.80471950  0.75013600  1
  O  O17  1  0.77772250  0.99526750  0.97079600  1
  O  O18  1  0.52760300  0.00637700  0.72104700  1
  O  O19  1  0.02668000  0.99599100  0.22253600  1
  O  O20  1  0.27802000  0.00601700  0.47466600  1
  O  O21  1  0.72198000  0.00601700  0.52533400  1
  O  O22  1  0.97332000  0.99599100  0.77746400  1
  O  O23  1  0.22227750  0.99526750  0.02920400  1
  O  O24  1  0.47239700  0.00637700  0.27895300  1
  O  O25  1  0.50000000  0.29540500  0.50000000  1
  O  O26  1  0.74928650  0.80471950  0.24986400  1
  O  O27  1  0.50000000  0.19063100  0.00000000  1
  O  O28  1  0.75071350  0.30471950  0.75013600  1
  O  O29  1  0.27772250  0.49526750  0.97079600  1
  O  O30  1  0.02760300  0.50637700  0.72104700  1
  O  O31  1  0.52668000  0.49599100  0.22253600  1
  O  O32  1  0.77802000  0.50601700  0.47466600  1
  O  O33  1  0.22198000  0.50601700  0.52533400  1
  O  O34  1  0.47332000  0.49599100  0.77746400  1
  O  O35  1  0.72227750  0.49526750  0.02920400  1
  O  O36  1  0.97239700  0.50637700  0.27895300  1
  O  O37  1  0.00000000  0.79540500  0.50000000  1
  O  O38  1  0.24928650  0.30471950  0.24986400  1
  O  O39  1  0.00000000  0.69063100  0.00000000  1
  F  F40  1  0.24533800  0.21459500  0.74602300  1
  F  F41  1  0.50000000  0.69402500  0.50000000  1
  F  F42  1  0.50000000  0.77733200  0.00000000  1
  F  F43  1  0.75466200  0.21459500  0.25397700  1
  F  F44  1  0.74533800  0.71459500  0.74602300  1
  F  F45  1  0.00000000  0.19402500  0.50000000  1
  F  F46  1  0.00000000  0.27733200  0.00000000  1
  F  F47  1  0.25466200  0.71459500  0.25397700  1
