# generated using pymatgen
data_Ti3Fe2Te(PO4)6
_symmetry_space_group_name_H-M   'P 1'
_cell_length_a   8.81672546
_cell_length_b   8.81672546
_cell_length_c   20.97074574
_cell_angle_alpha   90.00000000
_cell_angle_beta   90.00000000
_cell_angle_gamma   120.00000000
_symmetry_Int_Tables_number   1
_chemical_formula_structural   Ti3Fe2Te(PO4)6
_chemical_formula_sum   'Ti9 Fe6 Te3 P18 O72'
_cell_volume   1411.75437230
_cell_formula_units_Z   3
loop_
 _symmetry_equiv_pos_site_id
 _symmetry_equiv_pos_as_xyz
  1  'x, y, z'
loop_
 _atom_site_type_symbol
 _atom_site_label
 _atom_site_symmetry_multiplicity
 _atom_site_fract_x
 _atom_site_fract_y
 _atom_site_fract_z
 _atom_site_occupancy
  Ti  Ti0  1  0.33333333  0.66666667  0.52256567  1
  Ti  Ti1  1  0.33333333  0.66666667  0.31146167  1
  Ti  Ti2  1  0.33333333  0.66666667  0.02368367  1
  Ti  Ti3  1  0.00000000  0.00000000  0.85589900  1
  Ti  Ti4  1  0.00000000  0.00000000  0.64479500  1
  Ti  Ti5  1  0.00000000  0.00000000  0.35701700  1
  Ti  Ti6  1  0.66666667  0.33333333  0.18923233  1
  Ti  Ti7  1  0.66666667  0.33333333  0.97812833  1
  Ti  Ti8  1  0.66666667  0.33333333  0.69035033  1
  Fe  Fe9  1  0.33333333  0.66666667  0.66314667  1
  Fe  Fe10  1  0.33333333  0.66666667  0.16714367  1
  Fe  Fe11  1  0.00000000  0.00000000  0.99648000  1
  Fe  Fe12  1  0.00000000  0.00000000  0.50047700  1
  Fe  Fe13  1  0.66666667  0.33333333  0.32981333  1
  Fe  Fe14  1  0.66666667  0.33333333  0.83381033  1
  Te  Te15  1  0.33333333  0.66666667  0.81206667  1
  Te  Te16  1  0.00000000  0.00000000  0.14540000  1
  Te  Te17  1  0.66666667  0.33333333  0.47873333  1
  P  P18  1  0.37937933  0.33969967  0.08279467  1
  P  P19  1  0.96032033  0.62062067  0.08279467  1
  P  P20  1  0.66030033  0.03967967  0.08279467  1
  P  P21  1  0.00022833  0.30170367  0.25244767  1
  P  P22  1  0.69829633  0.69852467  0.25244767  1
  P  P23  1  0.30147533  0.99977167  0.25244767  1
  P  P24  1  0.04604600  0.67303300  0.41612800  1
  P  P25  1  0.62698700  0.95395400  0.41612800  1
  P  P26  1  0.32696700  0.37301300  0.41612800  1
  P  P27  1  0.66689500  0.63503700  0.58578100  1
  P  P28  1  0.36496300  0.03185800  0.58578100  1
  P  P29  1  0.96814200  0.33310500  0.58578100  1
  P  P30  1  0.71271267  0.00636633  0.74946133  1
  P  P31  1  0.29365367  0.28728733  0.74946133  1
  P  P32  1  0.99363367  0.70634633  0.74946133  1
  P  P33  1  0.33356167  0.96837033  0.91911433  1
  P  P34  1  0.03162967  0.36519133  0.91911433  1
  P  P35  1  0.63480867  0.66643833  0.91911433  1
  O  O36  1  0.31524400  0.46782900  0.35662800  1
  O  O37  1  0.15258500  0.68475600  0.35662800  1
  O  O38  1  0.83446467  0.32072033  0.25820433  1
  O  O39  1  0.53217100  0.84741500  0.35662800  1
  O  O40  1  0.99680967  0.21155133  0.18844633  1
  O  O41  1  0.16428533  0.48794567  0.24579267  1
  O  O42  1  0.67927967  0.51374433  0.25820433  1
  O  O43  1  0.51205433  0.67633967  0.24579267  1
  O  O44  1  0.46906700  0.32619000  0.14365300  1
  O  O45  1  0.32366033  0.83571467  0.24579267  1
  O  O46  1  0.19306133  0.17346667  0.07141567  1
  O  O47  1  0.85712300  0.53093300  0.14365300  1
  O  O48  1  0.78844867  0.78525833  0.18844633  1
  O  O49  1  0.48625567  0.16553533  0.25820433  1
  O  O50  1  0.35495933  0.50216267  0.09088767  1
  O  O51  1  0.21474167  0.00319033  0.18844633  1
  O  O52  1  0.14720333  0.64504067  0.09088767  1
  O  O53  1  0.98040533  0.80693867  0.07141567  1
  O  O54  1  0.49783733  0.85279667  0.09088767  1
  O  O55  1  0.67381000  0.14287700  0.14365300  1
  O  O56  1  0.13737167  0.47395933  0.97637433  1
  O  O57  1  0.82653333  0.01959467  0.07141567  1
  O  O58  1  0.52604067  0.66341233  0.97637433  1
  O  O59  1  0.33658767  0.86262833  0.97637433  1
  O  O60  1  0.98191067  0.80116233  0.68996133  1
  O  O61  1  0.81925167  0.01808933  0.68996133  1
  O  O62  1  0.50113133  0.65405367  0.59153767  1
  O  O63  1  0.19883767  0.18074833  0.68996133  1
  O  O64  1  0.66347633  0.54488467  0.52177967  1
  O  O65  1  0.83095200  0.82127900  0.57912600  1
  O  O66  1  0.34594633  0.84707767  0.59153767  1
  O  O67  1  0.17872100  0.00967300  0.57912600  1
  O  O68  1  0.13573367  0.65952333  0.47698633  1
  O  O69  1  0.99032700  0.16904800  0.57912600  1
  O  O70  1  0.85972800  0.50680000  0.40474900  1
  O  O71  1  0.52378967  0.86426633  0.47698633  1
  O  O72  1  0.45511533  0.11859167  0.52177967  1
  O  O73  1  0.15292233  0.49886867  0.59153767  1
  O  O74  1  0.02162600  0.83549600  0.42422100  1
  O  O75  1  0.88140833  0.33652367  0.52177967  1
  O  O76  1  0.81387000  0.97837400  0.42422100  1
  O  O77  1  0.64707200  0.14027200  0.40474900  1
  O  O78  1  0.16450400  0.18613000  0.42422100  1
  O  O79  1  0.34047667  0.47621033  0.47698633  1
  O  O80  1  0.80403833  0.80729267  0.30970767  1
  O  O81  1  0.49320000  0.35292800  0.40474900  1
  O  O82  1  0.19270733  0.99674567  0.30970767  1
  O  O83  1  0.00325433  0.19596167  0.30970767  1
  O  O84  1  0.64857733  0.13449567  0.02329467  1
  O  O85  1  0.48591833  0.35142267  0.02329467  1
  O  O86  1  0.16779800  0.98738700  0.92487100  1
  O  O87  1  0.86550433  0.51408167  0.02329467  1
  O  O88  1  0.33014300  0.87821800  0.85511300  1
  O  O89  1  0.49761867  0.15461233  0.91245933  1
  O  O90  1  0.01261300  0.18041100  0.92487100  1
  O  O91  1  0.84538767  0.34300633  0.91245933  1
  O  O92  1  0.80240033  0.99285667  0.81031967  1
  O  O93  1  0.65699367  0.50238133  0.91245933  1
  O  O94  1  0.52639467  0.84013333  0.73808233  1
  O  O95  1  0.19045633  0.19759967  0.81031967  1
  O  O96  1  0.12178200  0.45192500  0.85511300  1
  O  O97  1  0.81958900  0.83220200  0.92487100  1
  O  O98  1  0.68829267  0.16882933  0.75755433  1
  O  O99  1  0.54807500  0.66985700  0.85511300  1
  O  O100  1  0.48053667  0.31170733  0.75755433  1
  O  O101  1  0.31373867  0.47360533  0.73808233  1
  O  O102  1  0.83117067  0.51946333  0.75755433  1
  O  O103  1  0.00714333  0.80954367  0.81031967  1
  O  O104  1  0.47070500  0.14062600  0.64304100  1
  O  O105  1  0.15986667  0.68626133  0.73808233  1
  O  O106  1  0.85937400  0.33007900  0.64304100  1
  O  O107  1  0.66992100  0.52929500  0.64304100  1
