# generated using pymatgen
data_Ti12Fe5O32
_symmetry_space_group_name_H-M   'P 1'
_cell_length_a   11.94854628
_cell_length_b   11.94854628
_cell_length_c   14.59957104
_cell_angle_alpha   90.00000000
_cell_angle_beta   90.00000000
_cell_angle_gamma   120.00000000
_symmetry_Int_Tables_number   1
_chemical_formula_structural   Ti12Fe5O32
_chemical_formula_sum   'Ti36 Fe15 O96'
_cell_volume   1805.09834412
_cell_formula_units_Z   3
loop_
 _symmetry_equiv_pos_site_id
 _symmetry_equiv_pos_as_xyz
  1  'x, y, z'
loop_
 _atom_site_type_symbol
 _atom_site_label
 _atom_site_symmetry_multiplicity
 _atom_site_fract_x
 _atom_site_fract_y
 _atom_site_fract_z
 _atom_site_occupancy
  Ti  Ti0  1  0.17917433  0.85498467  0.70520167  1
  Ti  Ti1  1  0.32343867  0.41795633  0.54000933  1
  Ti  Ti2  1  0.14501533  0.32418967  0.70520167  1
  Ti  Ti3  1  0.09451767  0.67656133  0.54000933  1
  Ti  Ti4  1  0.09756800  0.91887500  0.53417900  1
  Ti  Ti5  1  0.08112500  0.17869300  0.53417900  1
  Ti  Ti6  1  0.16844333  0.07646667  0.22180867  1
  Ti  Ti7  1  0.67581033  0.82082567  0.70520167  1
  Ti  Ti8  1  0.82130700  0.90243200  0.53417900  1
  Ti  Ti9  1  0.92353333  0.09197667  0.22180867  1
  Ti  Ti10  1  0.90802333  0.83155667  0.22180867  1
  Ti  Ti11  1  0.58204367  0.90548233  0.54000933  1
  Ti  Ti12  1  0.84584100  0.18831800  0.03853500  1
  Ti  Ti13  1  0.99010533  0.75128967  0.87334267  1
  Ti  Ti14  1  0.81168200  0.65752300  0.03853500  1
  Ti  Ti15  1  0.76118433  0.00989467  0.87334267  1
  Ti  Ti16  1  0.76423467  0.25220833  0.86751233  1
  Ti  Ti17  1  0.74779167  0.51202633  0.86751233  1
  Ti  Ti18  1  0.83511000  0.40980000  0.55514200  1
  Ti  Ti19  1  0.34247700  0.15415900  0.03853500  1
  Ti  Ti20  1  0.48797367  0.23576533  0.86751233  1
  Ti  Ti21  1  0.59020000  0.42531000  0.55514200  1
  Ti  Ti22  1  0.57469000  0.16489000  0.55514200  1
  Ti  Ti23  1  0.24871033  0.23881567  0.87334267  1
  Ti  Ti24  1  0.51250767  0.52165133  0.37186833  1
  Ti  Ti25  1  0.65677200  0.08462300  0.20667600  1
  Ti  Ti26  1  0.47834867  0.99085633  0.37186833  1
  Ti  Ti27  1  0.42785100  0.34322800  0.20667600  1
  Ti  Ti28  1  0.43090133  0.58554167  0.20084567  1
  Ti  Ti29  1  0.41445833  0.84535967  0.20084567  1
  Ti  Ti30  1  0.50177667  0.74313333  0.88847533  1
  Ti  Ti31  1  0.00914367  0.48749233  0.37186833  1
  Ti  Ti32  1  0.15464033  0.56909867  0.20084567  1
  Ti  Ti33  1  0.25686667  0.75864333  0.88847533  1
  Ti  Ti34  1  0.24135667  0.49822333  0.88847533  1
  Ti  Ti35  1  0.91537700  0.57214900  0.20667600  1
  Fe  Fe36  1  0.33599600  0.17572200  0.42043100  1
  Fe  Fe37  1  0.00000000  0.00000000  0.74094300  1
  Fe  Fe38  1  0.83972600  0.66400400  0.42043100  1
  Fe  Fe39  1  0.82427800  0.16027400  0.42043100  1
  Fe  Fe40  1  0.00000000  0.00000000  0.00500900  1
  Fe  Fe41  1  0.00266267  0.50905533  0.75376433  1
  Fe  Fe42  1  0.66666667  0.33333333  0.07427633  1
  Fe  Fe43  1  0.50639267  0.99733733  0.75376433  1
  Fe  Fe44  1  0.49094467  0.49360733  0.75376433  1
  Fe  Fe45  1  0.66666667  0.33333333  0.33834233  1
  Fe  Fe46  1  0.66932933  0.84238867  0.08709767  1
  Fe  Fe47  1  0.33333333  0.66666667  0.40760967  1
  Fe  Fe48  1  0.17305933  0.33067067  0.08709767  1
  Fe  Fe49  1  0.15761133  0.82694067  0.08709767  1
  Fe  Fe50  1  0.33333333  0.66666667  0.67167567  1
  O  O51  1  0.10036467  0.17354133  0.78589933  1
  O  O52  1  0.42354633  0.35246867  0.46480467  1
  O  O53  1  0.43805233  0.09796267  0.44972967  1
  O  O54  1  0.07317667  0.89963533  0.78589933  1
  O  O55  1  0.26362467  0.49462633  0.62922933  1
  O  O56  1  0.23114267  0.98542833  0.62685933  1
  O  O57  1  0.23593400  0.26734200  0.61905700  1
  O  O58  1  0.23100167  0.73637533  0.62922933  1
  O  O59  1  0.01457167  0.24571433  0.62685933  1
  O  O60  1  0.03140800  0.76406600  0.61905700  1
  O  O61  1  0.17534400  0.32635300  0.46831200  1
  O  O62  1  0.15100900  0.82465600  0.46831200  1
  O  O63  1  0.16913333  0.08602567  0.47430467  1
  O  O64  1  0.82645867  0.92682333  0.78589933  1
  O  O65  1  0.00000000  0.00000000  0.61062100  1
  O  O66  1  0.32337100  0.17522400  0.28982700  1
  O  O67  1  0.91397433  0.08310767  0.47430467  1
  O  O68  1  0.92892233  0.57645367  0.46480467  1
  O  O69  1  0.91689233  0.83086667  0.47430467  1
  O  O70  1  0.90203733  0.34008967  0.44972967  1
  O  O71  1  0.75428567  0.76885733  0.62685933  1
  O  O72  1  0.07556367  0.92043533  0.27421133  1
  O  O73  1  0.73265800  0.96859200  0.61905700  1
  O  O74  1  0.07956467  0.15512833  0.27421133  1
  O  O75  1  0.67364700  0.84899100  0.46831200  1
  O  O76  1  0.00000000  0.00000000  0.13440800  1
  O  O77  1  0.50537367  0.76899833  0.62922933  1
  O  O78  1  0.84487167  0.92443633  0.27421133  1
  O  O79  1  0.85185300  0.67662900  0.28982700  1
  O  O80  1  0.82477600  0.14814700  0.28982700  1
  O  O81  1  0.64753133  0.07107767  0.46480467  1
  O  O82  1  0.65991033  0.56194767  0.44972967  1
  O  O83  1  0.76703133  0.50687467  0.11923267  1
  O  O84  1  0.09021300  0.68580200  0.79813800  1
  O  O85  1  0.10471900  0.43129600  0.78306300  1
  O  O86  1  0.73984333  0.23296867  0.11923267  1
  O  O87  1  0.93029133  0.82795967  0.96256267  1
  O  O88  1  0.89780933  0.31876167  0.96019267  1
  O  O89  1  0.90260067  0.60067533  0.95239033  1
  O  O90  1  0.89766833  0.06970867  0.96256267  1
  O  O91  1  0.68123833  0.57904767  0.96019267  1
  O  O92  1  0.69807467  0.09739933  0.95239033  1
  O  O93  1  0.84201067  0.65968633  0.80164533  1
  O  O94  1  0.81767567  0.15798933  0.80164533  1
  O  O95  1  0.83580000  0.41935900  0.80763800  1
  O  O96  1  0.49312533  0.26015667  0.11923267  1
  O  O97  1  0.66666667  0.33333333  0.94395433  1
  O  O98  1  0.99003767  0.50855733  0.62316033  1
  O  O99  1  0.58064100  0.41644100  0.80763800  1
  O  O100  1  0.59558900  0.90978700  0.79813800  1
  O  O101  1  0.58355900  0.16420000  0.80763800  1
  O  O102  1  0.56870400  0.67342300  0.78306300  1
  O  O103  1  0.42095233  0.10219067  0.96019267  1
  O  O104  1  0.74223033  0.25376867  0.60754467  1
  O  O105  1  0.39932467  0.30192533  0.95239033  1
  O  O106  1  0.74623133  0.48846167  0.60754467  1
  O  O107  1  0.34031367  0.18232433  0.80164533  1
  O  O108  1  0.66666667  0.33333333  0.46774133  1
  O  O109  1  0.17204033  0.10233167  0.96256267  1
  O  O110  1  0.51153833  0.25776967  0.60754467  1
  O  O111  1  0.51851967  0.00996233  0.62316033  1
  O  O112  1  0.49144267  0.48148033  0.62316033  1
  O  O113  1  0.31419800  0.40441100  0.79813800  1
  O  O114  1  0.32657700  0.89528100  0.78306300  1
  O  O115  1  0.43369800  0.84020800  0.45256600  1
  O  O116  1  0.75687967  0.01913533  0.13147133  1
  O  O117  1  0.77138567  0.76462933  0.11639633  1
  O  O118  1  0.40651000  0.56630200  0.45256600  1
  O  O119  1  0.59695800  0.16129300  0.29589600  1
  O  O120  1  0.56447600  0.65209500  0.29352600  1
  O  O121  1  0.56926733  0.93400867  0.28572367  1
  O  O122  1  0.56433500  0.40304200  0.29589600  1
  O  O123  1  0.34790500  0.91238100  0.29352600  1
  O  O124  1  0.36474133  0.43073267  0.28572367  1
  O  O125  1  0.50867733  0.99301967  0.13497867  1
  O  O126  1  0.48434233  0.49132267  0.13497867  1
  O  O127  1  0.50246667  0.75269233  0.14097133  1
  O  O128  1  0.15979200  0.59349000  0.45256600  1
  O  O129  1  0.33333333  0.66666667  0.27728767  1
  O  O130  1  0.65670433  0.84189067  0.95649367  1
  O  O131  1  0.24730767  0.74977433  0.14097133  1
  O  O132  1  0.26225567  0.24312033  0.13147133  1
  O  O133  1  0.25022567  0.49753333  0.14097133  1
  O  O134  1  0.23537067  0.00675633  0.11639633  1
  O  O135  1  0.08761900  0.43552400  0.29352600  1
  O  O136  1  0.40889700  0.58710200  0.94087800  1
  O  O137  1  0.06599133  0.63525867  0.28572367  1
  O  O138  1  0.41289800  0.82179500  0.94087800  1
  O  O139  1  0.00698033  0.51565767  0.13497867  1
  O  O140  1  0.33333333  0.66666667  0.80107467  1
  O  O141  1  0.83870700  0.43566500  0.29589600  1
  O  O142  1  0.17820500  0.59110300  0.94087800  1
  O  O143  1  0.18518633  0.34329567  0.95649367  1
  O  O144  1  0.15810933  0.81481367  0.95649367  1
  O  O145  1  0.98086467  0.73774433  0.13147133  1
  O  O146  1  0.99324367  0.22861433  0.11639633  1
