# generated using pymatgen
data_Fe3O5F
_symmetry_space_group_name_H-M   'P 1'
_cell_length_a   9.02168000
_cell_length_b   6.45118200
_cell_length_c   7.37952375
_cell_angle_alpha   90.00000000
_cell_angle_beta   114.57145672
_cell_angle_gamma   90.00000000
_symmetry_Int_Tables_number   1
_chemical_formula_structural   Fe3O5F
_chemical_formula_sum   'Fe12 O20 F4'
_cell_volume   390.59862692
_cell_formula_units_Z   4
loop_
 _symmetry_equiv_pos_site_id
 _symmetry_equiv_pos_as_xyz
  1  'x, y, z'
loop_
 _atom_site_type_symbol
 _atom_site_label
 _atom_site_symmetry_multiplicity
 _atom_site_fract_x
 _atom_site_fract_y
 _atom_site_fract_z
 _atom_site_occupancy
  Fe  Fe0  1  0.32390100  0.50000000  0.34548200  1
  Fe  Fe1  1  0.00000000  0.50000000  0.50000000  1
  Fe  Fe2  1  0.31905500  0.50000000  0.82775000  1
  Fe  Fe3  1  0.00000000  0.50000000  0.00000000  1
  Fe  Fe4  1  0.67609900  0.50000000  0.65451800  1
  Fe  Fe5  1  0.68094500  0.50000000  0.17225000  1
  Fe  Fe6  1  0.82390100  0.00000000  0.34548200  1
  Fe  Fe7  1  0.50000000  0.00000000  0.50000000  1
  Fe  Fe8  1  0.81905500  0.00000000  0.82775000  1
  Fe  Fe9  1  0.50000000  0.00000000  0.00000000  1
  Fe  Fe10  1  0.17609900  0.00000000  0.65451800  1
  Fe  Fe11  1  0.18094500  0.00000000  0.17225000  1
  O  O12  1  0.00000000  0.18553800  0.50000000  1
  O  O13  1  0.83138700  0.69335800  0.83760100  1
  O  O14  1  0.90908800  0.50000000  0.21450200  1
  O  O15  1  0.21924500  0.50000000  0.53468800  1
  O  O16  1  0.09091200  0.50000000  0.78549800  1
  O  O17  1  0.78075500  0.50000000  0.46531200  1
  O  O18  1  0.83138700  0.30664200  0.83760100  1
  O  O19  1  0.00000000  0.81446200  0.50000000  1
  O  O20  1  0.16861300  0.30664200  0.16239900  1
  O  O21  1  0.16861300  0.69335800  0.16239900  1
  O  O22  1  0.50000000  0.68553800  0.50000000  1
  O  O23  1  0.33138700  0.19335800  0.83760100  1
  O  O24  1  0.40908800  0.00000000  0.21450200  1
  O  O25  1  0.71924500  0.00000000  0.53468800  1
  O  O26  1  0.59091200  0.00000000  0.78549800  1
  O  O27  1  0.28075500  0.00000000  0.46531200  1
  O  O28  1  0.33138700  0.80664200  0.83760100  1
  O  O29  1  0.50000000  0.31446200  0.50000000  1
  O  O30  1  0.66861300  0.80664200  0.16239900  1
  O  O31  1  0.66861300  0.19335800  0.16239900  1
  F  F32  1  0.56017100  0.50000000  0.87033000  1
  F  F33  1  0.43982900  0.50000000  0.12967000  1
  F  F34  1  0.06017100  0.00000000  0.87033000  1
  F  F35  1  0.93982900  0.00000000  0.12967000  1
