# generated using pymatgen
data_Li4Cr5FeO12
_symmetry_space_group_name_H-M   'P 1'
_cell_length_a   5.13782400
_cell_length_b   8.93483800
_cell_length_c   10.13639778
_cell_angle_alpha   90.00000000
_cell_angle_beta   90.18837487
_cell_angle_gamma   90.00000000
_symmetry_Int_Tables_number   1
_chemical_formula_structural   Li4Cr5FeO12
_chemical_formula_sum   'Li8 Cr10 Fe2 O24'
_cell_volume   465.31516177
_cell_formula_units_Z   2
loop_
 _symmetry_equiv_pos_site_id
 _symmetry_equiv_pos_as_xyz
  1  'x, y, z'
loop_
 _atom_site_type_symbol
 _atom_site_label
 _atom_site_symmetry_multiplicity
 _atom_site_fract_x
 _atom_site_fract_y
 _atom_site_fract_z
 _atom_site_occupancy
  Li  Li0  1  0.90102400  0.24831600  0.24971700  1
  Li  Li1  1  0.09897600  0.24831600  0.75028300  1
  Li  Li2  1  0.40102400  0.25168400  0.24971700  1
  Li  Li3  1  0.59897600  0.25168400  0.75028300  1
  Li  Li4  1  0.40102400  0.74831600  0.24971700  1
  Li  Li5  1  0.59897600  0.74831600  0.75028300  1
  Li  Li6  1  0.90102400  0.75168400  0.24971700  1
  Li  Li7  1  0.09897600  0.75168400  0.75028300  1
  Cr  Cr8  1  0.00000000  0.16530900  0.50000000  1
  Cr  Cr9  1  0.50000000  0.16518500  0.00000000  1
  Cr  Cr10  1  0.00000000  0.33481500  0.00000000  1
  Cr  Cr11  1  0.50000000  0.33469100  0.50000000  1
  Cr  Cr12  1  0.50000000  0.00000000  0.50000000  1
  Cr  Cr13  1  0.50000000  0.66530900  0.50000000  1
  Cr  Cr14  1  0.00000000  0.66518500  0.00000000  1
  Cr  Cr15  1  0.50000000  0.83481500  0.00000000  1
  Cr  Cr16  1  0.00000000  0.83469100  0.50000000  1
  Cr  Cr17  1  0.00000000  0.50000000  0.50000000  1
  Fe  Fe18  1  0.00000000  0.00000000  0.00000000  1
  Fe  Fe19  1  0.50000000  0.50000000  0.00000000  1
  O  O20  1  0.83623950  0.17314550  0.89291400  1
  O  O21  1  0.16376050  0.17314550  0.10708600  1
  O  O22  1  0.83643950  0.32839950  0.60538100  1
  O  O23  1  0.33643950  0.17160050  0.60538100  1
  O  O24  1  0.16356050  0.32839950  0.39461900  1
  O  O25  1  0.16974800  0.00000000  0.40666600  1
  O  O26  1  0.66356050  0.17160050  0.39461900  1
  O  O27  1  0.33623950  0.32685450  0.89291400  1
  O  O28  1  0.32374700  0.00000000  0.90377100  1
  O  O29  1  0.66376050  0.32685450  0.10708600  1
  O  O30  1  0.67625300  0.00000000  0.09622900  1
  O  O31  1  0.83025200  0.00000000  0.59333400  1
  O  O32  1  0.33623950  0.67314550  0.89291400  1
  O  O33  1  0.66376050  0.67314550  0.10708600  1
  O  O34  1  0.33643950  0.82839950  0.60538100  1
  O  O35  1  0.83643950  0.67160050  0.60538100  1
  O  O36  1  0.66356050  0.82839950  0.39461900  1
  O  O37  1  0.66974800  0.50000000  0.40666600  1
  O  O38  1  0.16356050  0.67160050  0.39461900  1
  O  O39  1  0.83623950  0.82685450  0.89291400  1
  O  O40  1  0.82374700  0.50000000  0.90377100  1
  O  O41  1  0.16376050  0.82685450  0.10708600  1
  O  O42  1  0.17625300  0.50000000  0.09622900  1
  O  O43  1  0.33025200  0.50000000  0.59333400  1
