# generated using pymatgen
data_Li2NbV3O8
_symmetry_space_group_name_H-M   'P 1'
_cell_length_a   6.06097349
_cell_length_b   6.06097349
_cell_length_c   14.97858629
_cell_angle_alpha   90.00000000
_cell_angle_beta   90.00000000
_cell_angle_gamma   120.00000000
_symmetry_Int_Tables_number   1
_chemical_formula_structural   Li2NbV3O8
_chemical_formula_sum   'Li6 Nb3 V9 O24'
_cell_volume   476.52558866
_cell_formula_units_Z   3
loop_
 _symmetry_equiv_pos_site_id
 _symmetry_equiv_pos_as_xyz
  1  'x, y, z'
loop_
 _atom_site_type_symbol
 _atom_site_label
 _atom_site_symmetry_multiplicity
 _atom_site_fract_x
 _atom_site_fract_y
 _atom_site_fract_z
 _atom_site_occupancy
  Li  Li0  1  0.66666667  0.33333333  0.20538600  1
  Li  Li1  1  0.00000000  0.00000000  0.12794733  1
  Li  Li2  1  0.33333333  0.66666667  0.53871933  1
  Li  Li3  1  0.66666667  0.33333333  0.46128067  1
  Li  Li4  1  0.00000000  0.00000000  0.87205267  1
  Li  Li5  1  0.33333333  0.66666667  0.79461400  1
  Nb  Nb6  1  0.33333333  0.66666667  0.16666667  1
  Nb  Nb7  1  1.00000000  1.00000000  0.50000000  1
  Nb  Nb8  1  0.66666667  0.33333333  0.83333333  1
  V  V9  1  0.00000000  0.50000000  0.00000000  1
  V  V10  1  0.50000000  0.00000000  0.00000000  1
  V  V11  1  0.50000000  0.50000000  0.00000000  1
  V  V12  1  0.66666667  0.83333333  0.33333333  1
  V  V13  1  0.16666667  0.33333333  0.33333333  1
  V  V14  1  0.16666667  0.83333333  0.33333333  1
  V  V15  1  0.33333333  0.16666667  0.66666667  1
  V  V16  1  0.83333333  0.66666667  0.66666667  1
  V  V17  1  0.83333333  0.16666667  0.66666667  1
  O  O18  1  0.66666667  0.33333333  0.06817533  1
  O  O19  1  0.00000000  0.00000000  0.26515800  1
  O  O20  1  0.48505117  0.51494883  0.25067333  1
  O  O21  1  0.48505117  0.97010233  0.25067333  1
  O  O22  1  0.02989767  0.51494883  0.25067333  1
  O  O23  1  0.63676900  0.81838450  0.08266000  1
  O  O24  1  0.18161550  0.36323100  0.08266000  1
  O  O25  1  0.18161550  0.81838450  0.08266000  1
  O  O26  1  0.33333333  0.66666667  0.40150867  1
  O  O27  1  0.66666667  0.33333333  0.59849133  1
  O  O28  1  0.15171783  0.84828217  0.58400667  1
  O  O29  1  0.15171783  0.30343567  0.58400667  1
  O  O30  1  0.69656433  0.84828217  0.58400667  1
  O  O31  1  0.30343567  0.15171783  0.41599333  1
  O  O32  1  0.84828217  0.69656433  0.41599333  1
  O  O33  1  0.84828217  0.15171783  0.41599333  1
  O  O34  1  0.00000000  0.00000000  0.73484200  1
  O  O35  1  0.33333333  0.66666667  0.93182467  1
  O  O36  1  0.81838450  0.18161550  0.91734000  1
  O  O37  1  0.81838450  0.63676900  0.91734000  1
  O  O38  1  0.36323100  0.18161550  0.91734000  1
  O  O39  1  0.97010233  0.48505117  0.74932667  1
  O  O40  1  0.51494883  0.02989767  0.74932667  1
  O  O41  1  0.51494883  0.48505117  0.74932667  1
