# generated using pymatgen
data_Na6B4Sb2SO16
_symmetry_space_group_name_H-M   'P 1'
_cell_length_a   14.33848800
_cell_length_b   14.33848800
_cell_length_c   14.33848800
_cell_angle_alpha   90.00000000
_cell_angle_beta   90.00000000
_cell_angle_gamma   90.00000000
_symmetry_Int_Tables_number   1
_chemical_formula_structural   Na6B4Sb2SO16
_chemical_formula_sum   'Na48 B32 Sb16 S8 O128'
_cell_volume   2947.88183926
_cell_formula_units_Z   8
loop_
 _symmetry_equiv_pos_site_id
 _symmetry_equiv_pos_as_xyz
  1  'x, y, z'
loop_
 _atom_site_type_symbol
 _atom_site_label
 _atom_site_symmetry_multiplicity
 _atom_site_fract_x
 _atom_site_fract_y
 _atom_site_fract_z
 _atom_site_occupancy
  Na  Na0  1  0.21190700  0.00000000  0.00000000  1
  Na  Na1  1  0.00000000  0.21190700  0.00000000  1
  Na  Na2  1  0.00000000  0.00000000  0.78809300  1
  Na  Na3  1  0.00000000  0.00000000  0.21190700  1
  Na  Na4  1  0.25000000  0.96190700  0.75000000  1
  Na  Na5  1  0.46190700  0.75000000  0.75000000  1
  Na  Na6  1  0.00000000  0.78809300  0.00000000  1
  Na  Na7  1  0.78809300  0.00000000  0.00000000  1
  Na  Na8  1  0.25000000  0.75000000  0.96190700  1
  Na  Na9  1  0.25000000  0.75000000  0.53809300  1
  Na  Na10  1  0.03809300  0.75000000  0.75000000  1
  Na  Na11  1  0.75000000  0.03809300  0.75000000  1
  Na  Na12  1  0.21190700  0.50000000  0.50000000  1
  Na  Na13  1  0.00000000  0.71190700  0.50000000  1
  Na  Na14  1  0.00000000  0.50000000  0.28809300  1
  Na  Na15  1  0.00000000  0.50000000  0.71190700  1
  Na  Na16  1  0.25000000  0.46190700  0.25000000  1
  Na  Na17  1  0.46190700  0.25000000  0.25000000  1
  Na  Na18  1  0.00000000  0.28809300  0.50000000  1
  Na  Na19  1  0.78809300  0.50000000  0.50000000  1
  Na  Na20  1  0.25000000  0.25000000  0.46190700  1
  Na  Na21  1  0.25000000  0.25000000  0.03809300  1
  Na  Na22  1  0.03809300  0.25000000  0.25000000  1
  Na  Na23  1  0.75000000  0.53809300  0.25000000  1
  Na  Na24  1  0.71190700  0.00000000  0.50000000  1
  Na  Na25  1  0.50000000  0.21190700  0.50000000  1
  Na  Na26  1  0.50000000  0.00000000  0.28809300  1
  Na  Na27  1  0.50000000  0.00000000  0.71190700  1
  Na  Na28  1  0.75000000  0.96190700  0.25000000  1
  Na  Na29  1  0.96190700  0.75000000  0.25000000  1
  Na  Na30  1  0.50000000  0.78809300  0.50000000  1
  Na  Na31  1  0.28809300  0.00000000  0.50000000  1
  Na  Na32  1  0.75000000  0.75000000  0.46190700  1
  Na  Na33  1  0.75000000  0.75000000  0.03809300  1
  Na  Na34  1  0.53809300  0.75000000  0.25000000  1
  Na  Na35  1  0.25000000  0.03809300  0.25000000  1
  Na  Na36  1  0.71190700  0.50000000  0.00000000  1
  Na  Na37  1  0.50000000  0.71190700  0.00000000  1
  Na  Na38  1  0.50000000  0.50000000  0.78809300  1
  Na  Na39  1  0.50000000  0.50000000  0.21190700  1
  Na  Na40  1  0.75000000  0.46190700  0.75000000  1
  Na  Na41  1  0.96190700  0.25000000  0.75000000  1
  Na  Na42  1  0.50000000  0.28809300  0.00000000  1
  Na  Na43  1  0.28809300  0.50000000  0.00000000  1
  Na  Na44  1  0.75000000  0.25000000  0.96190700  1
  Na  Na45  1  0.75000000  0.25000000  0.53809300  1
  Na  Na46  1  0.53809300  0.25000000  0.75000000  1
  Na  Na47  1  0.25000000  0.53809300  0.75000000  1
  B  B48  1  0.40674833  0.90674833  0.90674833  1
  B  B49  1  0.09325167  0.90674833  0.59325167  1
  B  B50  1  0.90674833  0.09325167  0.59325167  1
  B  B51  1  0.59325167  0.09325167  0.90674833  1
  B  B52  1  0.15674833  0.15674833  0.84325167  1
  B  B53  1  0.84325167  0.15674833  0.15674833  1
  B  B54  1  0.15674833  0.84325167  0.15674833  1
  B  B55  1  0.84325167  0.84325167  0.84325167  1
  B  B56  1  0.40674833  0.40674833  0.40674833  1
  B  B57  1  0.09325167  0.40674833  0.09325167  1
  B  B58  1  0.90674833  0.59325167  0.09325167  1
  B  B59  1  0.59325167  0.59325167  0.40674833  1
  B  B60  1  0.15674833  0.65674833  0.34325167  1
  B  B61  1  0.84325167  0.65674833  0.65674833  1
  B  B62  1  0.15674833  0.34325167  0.65674833  1
  B  B63  1  0.84325167  0.34325167  0.34325167  1
  B  B64  1  0.90674833  0.90674833  0.40674833  1
  B  B65  1  0.59325167  0.90674833  0.09325167  1
  B  B66  1  0.40674833  0.09325167  0.09325167  1
  B  B67  1  0.09325167  0.09325167  0.40674833  1
  B  B68  1  0.65674833  0.15674833  0.34325167  1
  B  B69  1  0.34325167  0.15674833  0.65674833  1
  B  B70  1  0.65674833  0.84325167  0.65674833  1
  B  B71  1  0.34325167  0.84325167  0.34325167  1
  B  B72  1  0.90674833  0.40674833  0.90674833  1
  B  B73  1  0.59325167  0.40674833  0.59325167  1
  B  B74  1  0.40674833  0.59325167  0.59325167  1
  B  B75  1  0.09325167  0.59325167  0.90674833  1
  B  B76  1  0.65674833  0.65674833  0.84325167  1
  B  B77  1  0.34325167  0.65674833  0.15674833  1
  B  B78  1  0.65674833  0.34325167  0.15674833  1
  B  B79  1  0.34325167  0.34325167  0.84325167  1
  Sb  Sb80  1  0.87500000  0.87500000  0.62500000  1
  Sb  Sb81  1  0.87500000  0.12500000  0.37500000  1
  Sb  Sb82  1  0.12500000  0.87500000  0.37500000  1
  Sb  Sb83  1  0.12500000  0.12500000  0.62500000  1
  Sb  Sb84  1  0.87500000  0.37500000  0.12500000  1
  Sb  Sb85  1  0.87500000  0.62500000  0.87500000  1
  Sb  Sb86  1  0.12500000  0.37500000  0.87500000  1
  Sb  Sb87  1  0.12500000  0.62500000  0.12500000  1
  Sb  Sb88  1  0.37500000  0.87500000  0.12500000  1
  Sb  Sb89  1  0.37500000  0.12500000  0.87500000  1
  Sb  Sb90  1  0.62500000  0.87500000  0.87500000  1
  Sb  Sb91  1  0.62500000  0.12500000  0.12500000  1
  Sb  Sb92  1  0.37500000  0.37500000  0.62500000  1
  Sb  Sb93  1  0.37500000  0.62500000  0.37500000  1
  Sb  Sb94  1  0.62500000  0.37500000  0.37500000  1
  Sb  Sb95  1  0.62500000  0.62500000  0.62500000  1
  S  S96  1  0.25000000  0.75000000  0.75000000  1
  S  S97  1  0.00000000  0.00000000  0.00000000  1
  S  S98  1  0.25000000  0.25000000  0.25000000  1
  S  S99  1  0.00000000  0.50000000  0.50000000  1
  S  S100  1  0.75000000  0.75000000  0.25000000  1
  S  S101  1  0.50000000  0.00000000  0.50000000  1
  S  S102  1  0.75000000  0.25000000  0.75000000  1
  S  S103  1  0.50000000  0.50000000  0.00000000  1
  O  O104  1  0.68971600  0.18971600  0.68971600  1
  O  O105  1  0.18971600  0.81028400  0.81028400  1
  O  O106  1  0.81028400  0.18971600  0.81028400  1
  O  O107  1  0.31028400  0.81028400  0.68971600  1
  O  O108  1  0.34334400  0.89441850  0.97912150  1
  O  O109  1  0.47912150  0.84334400  0.89441850  1
  O  O110  1  0.02087850  0.84334400  0.60558150  1
  O  O111  1  0.39441850  0.97912150  0.84334400  1
  O  O112  1  0.89441850  0.02087850  0.65665600  1
  O  O113  1  0.84334400  0.10558150  0.52087850  1
  O  O114  1  0.15665600  0.89441850  0.52087850  1
  O  O115  1  0.10558150  0.97912150  0.65665600  1
  O  O116  1  0.60558150  0.02087850  0.84334400  1
  O  O117  1  0.97912150  0.15665600  0.60558150  1
  O  O118  1  0.52087850  0.15665600  0.89441850  1
  O  O119  1  0.09334400  0.14441850  0.77087850  1
  O  O120  1  0.65665600  0.10558150  0.97912150  1
  O  O121  1  0.22912150  0.09334400  0.85558150  1
  O  O122  1  0.27087850  0.09334400  0.64441850  1
  O  O123  1  0.64441850  0.22912150  0.40665600  1
  O  O124  1  0.14441850  0.77087850  0.09334400  1
  O  O125  1  0.59334400  0.85558150  0.72912150  1
  O  O126  1  0.40665600  0.14441850  0.72912150  1
  O  O127  1  0.85558150  0.22912150  0.09334400  1
  O  O128  1  0.35558150  0.77087850  0.40665600  1
  O  O129  1  0.72912150  0.90665600  0.64441850  1
  O  O130  1  0.77087850  0.90665600  0.85558150  1
  O  O131  1  0.90665600  0.85558150  0.77087850  1
  O  O132  1  0.93971600  0.93971600  0.06028400  1
  O  O133  1  0.06028400  0.93971600  0.93971600  1
  O  O134  1  0.93971600  0.06028400  0.93971600  1
  O  O135  1  0.06028400  0.06028400  0.06028400  1
  O  O136  1  0.68971600  0.68971600  0.18971600  1
  O  O137  1  0.18971600  0.31028400  0.31028400  1
  O  O138  1  0.81028400  0.68971600  0.31028400  1
  O  O139  1  0.31028400  0.31028400  0.18971600  1
  O  O140  1  0.34334400  0.39441850  0.47912150  1
  O  O141  1  0.47912150  0.34334400  0.39441850  1
  O  O142  1  0.02087850  0.34334400  0.10558150  1
  O  O143  1  0.39441850  0.47912150  0.34334400  1
  O  O144  1  0.89441850  0.52087850  0.15665600  1
  O  O145  1  0.84334400  0.60558150  0.02087850  1
  O  O146  1  0.15665600  0.39441850  0.02087850  1
  O  O147  1  0.10558150  0.47912150  0.15665600  1
  O  O148  1  0.60558150  0.52087850  0.34334400  1
  O  O149  1  0.97912150  0.65665600  0.10558150  1
  O  O150  1  0.52087850  0.65665600  0.39441850  1
  O  O151  1  0.09334400  0.64441850  0.27087850  1
  O  O152  1  0.65665600  0.60558150  0.47912150  1
  O  O153  1  0.22912150  0.59334400  0.35558150  1
  O  O154  1  0.27087850  0.59334400  0.14441850  1
  O  O155  1  0.64441850  0.72912150  0.90665600  1
  O  O156  1  0.14441850  0.27087850  0.59334400  1
  O  O157  1  0.59334400  0.35558150  0.22912150  1
  O  O158  1  0.40665600  0.64441850  0.22912150  1
  O  O159  1  0.85558150  0.72912150  0.59334400  1
  O  O160  1  0.35558150  0.27087850  0.90665600  1
  O  O161  1  0.72912150  0.40665600  0.14441850  1
  O  O162  1  0.77087850  0.40665600  0.35558150  1
  O  O163  1  0.90665600  0.35558150  0.27087850  1
  O  O164  1  0.93971600  0.43971600  0.56028400  1
  O  O165  1  0.06028400  0.43971600  0.43971600  1
  O  O166  1  0.93971600  0.56028400  0.43971600  1
  O  O167  1  0.06028400  0.56028400  0.56028400  1
  O  O168  1  0.18971600  0.18971600  0.18971600  1
  O  O169  1  0.68971600  0.81028400  0.31028400  1
  O  O170  1  0.31028400  0.18971600  0.31028400  1
  O  O171  1  0.81028400  0.81028400  0.18971600  1
  O  O172  1  0.84334400  0.89441850  0.47912150  1
  O  O173  1  0.97912150  0.84334400  0.39441850  1
  O  O174  1  0.52087850  0.84334400  0.10558150  1
  O  O175  1  0.89441850  0.97912150  0.34334400  1
  O  O176  1  0.39441850  0.02087850  0.15665600  1
  O  O177  1  0.34334400  0.10558150  0.02087850  1
  O  O178  1  0.65665600  0.89441850  0.02087850  1
  O  O179  1  0.60558150  0.97912150  0.15665600  1
  O  O180  1  0.10558150  0.02087850  0.34334400  1
  O  O181  1  0.47912150  0.15665600  0.10558150  1
  O  O182  1  0.02087850  0.15665600  0.39441850  1
  O  O183  1  0.59334400  0.14441850  0.27087850  1
  O  O184  1  0.15665600  0.10558150  0.47912150  1
  O  O185  1  0.72912150  0.09334400  0.35558150  1
  O  O186  1  0.77087850  0.09334400  0.14441850  1
  O  O187  1  0.14441850  0.22912150  0.90665600  1
  O  O188  1  0.64441850  0.77087850  0.59334400  1
  O  O189  1  0.09334400  0.85558150  0.22912150  1
  O  O190  1  0.90665600  0.14441850  0.22912150  1
  O  O191  1  0.35558150  0.22912150  0.59334400  1
  O  O192  1  0.85558150  0.77087850  0.90665600  1
  O  O193  1  0.22912150  0.90665600  0.14441850  1
  O  O194  1  0.27087850  0.90665600  0.35558150  1
  O  O195  1  0.40665600  0.85558150  0.27087850  1
  O  O196  1  0.43971600  0.93971600  0.56028400  1
  O  O197  1  0.56028400  0.93971600  0.43971600  1
  O  O198  1  0.43971600  0.06028400  0.43971600  1
  O  O199  1  0.56028400  0.06028400  0.56028400  1
  O  O200  1  0.18971600  0.68971600  0.68971600  1
  O  O201  1  0.68971600  0.31028400  0.81028400  1
  O  O202  1  0.31028400  0.68971600  0.81028400  1
  O  O203  1  0.81028400  0.31028400  0.68971600  1
  O  O204  1  0.84334400  0.39441850  0.97912150  1
  O  O205  1  0.97912150  0.34334400  0.89441850  1
  O  O206  1  0.52087850  0.34334400  0.60558150  1
  O  O207  1  0.89441850  0.47912150  0.84334400  1
  O  O208  1  0.39441850  0.52087850  0.65665600  1
  O  O209  1  0.34334400  0.60558150  0.52087850  1
  O  O210  1  0.65665600  0.39441850  0.52087850  1
  O  O211  1  0.60558150  0.47912150  0.65665600  1
  O  O212  1  0.10558150  0.52087850  0.84334400  1
  O  O213  1  0.47912150  0.65665600  0.60558150  1
  O  O214  1  0.02087850  0.65665600  0.89441850  1
  O  O215  1  0.59334400  0.64441850  0.77087850  1
  O  O216  1  0.15665600  0.60558150  0.97912150  1
  O  O217  1  0.72912150  0.59334400  0.85558150  1
  O  O218  1  0.77087850  0.59334400  0.64441850  1
  O  O219  1  0.14441850  0.72912150  0.40665600  1
  O  O220  1  0.64441850  0.27087850  0.09334400  1
  O  O221  1  0.09334400  0.35558150  0.72912150  1
  O  O222  1  0.90665600  0.64441850  0.72912150  1
  O  O223  1  0.35558150  0.72912150  0.09334400  1
  O  O224  1  0.85558150  0.27087850  0.40665600  1
  O  O225  1  0.22912150  0.40665600  0.64441850  1
  O  O226  1  0.27087850  0.40665600  0.85558150  1
  O  O227  1  0.40665600  0.35558150  0.77087850  1
  O  O228  1  0.43971600  0.43971600  0.06028400  1
  O  O229  1  0.56028400  0.43971600  0.93971600  1
  O  O230  1  0.43971600  0.56028400  0.93971600  1
  O  O231  1  0.56028400  0.56028400  0.06028400  1
