# generated using pymatgen
data_LiMnSiO4
_symmetry_space_group_name_H-M   'P 1'
_cell_length_a   4.79866600
_cell_length_b   6.30390700
_cell_length_c   10.20357100
_cell_angle_alpha   90.00000000
_cell_angle_beta   90.00000000
_cell_angle_gamma   90.00000000
_symmetry_Int_Tables_number   1
_chemical_formula_structural   LiMnSiO4
_chemical_formula_sum   'Li4 Mn4 Si4 O16'
_cell_volume   308.66153470
_cell_formula_units_Z   4
loop_
 _symmetry_equiv_pos_site_id
 _symmetry_equiv_pos_as_xyz
  1  'x, y, z'
loop_
 _atom_site_type_symbol
 _atom_site_label
 _atom_site_symmetry_multiplicity
 _atom_site_fract_x
 _atom_site_fract_y
 _atom_site_fract_z
 _atom_site_occupancy
  Li  Li0  1  0.54192900  0.75000000  0.28103050  1
  Li  Li1  1  0.95807100  0.75000000  0.78103050  1
  Li  Li2  1  0.04192900  0.25000000  0.21896950  1
  Li  Li3  1  0.45807100  0.25000000  0.71896950  1
  Mn  Mn4  1  0.00000000  0.00000000  0.50000000  1
  Mn  Mn5  1  0.00000000  0.50000000  0.50000000  1
  Mn  Mn6  1  0.50000000  0.00000000  0.00000000  1
  Mn  Mn7  1  0.50000000  0.50000000  0.00000000  1
  Si  Si8  1  0.59271300  0.25000000  0.40908250  1
  Si  Si9  1  0.90728700  0.25000000  0.90908250  1
  Si  Si10  1  0.09271300  0.75000000  0.09091750  1
  Si  Si11  1  0.40728700  0.75000000  0.59091750  1
  O  O12  1  0.75712000  0.25000000  0.55829550  1
  O  O13  1  0.74288000  0.25000000  0.05829550  1
  O  O14  1  0.25712000  0.75000000  0.94170450  1
  O  O15  1  0.24288000  0.75000000  0.44170450  1
  O  O16  1  0.75726600  0.75000000  0.09165950  1
  O  O17  1  0.74273400  0.75000000  0.59165950  1
  O  O18  1  0.25726600  0.25000000  0.40834050  1
  O  O19  1  0.24273400  0.25000000  0.90834050  1
  O  O20  1  0.74160900  0.03393050  0.35184050  1
  O  O21  1  0.74160900  0.46606950  0.35184050  1
  O  O22  1  0.75839100  0.46606950  0.85184050  1
  O  O23  1  0.75839100  0.03393050  0.85184050  1
  O  O24  1  0.24160900  0.53393050  0.14815950  1
  O  O25  1  0.24160900  0.96606950  0.14815950  1
  O  O26  1  0.25839100  0.96606950  0.64815950  1
  O  O27  1  0.25839100  0.53393050  0.64815950  1
