# generated using pymatgen
data_Li4Fe3Co2Sn3O16
_symmetry_space_group_name_H-M   'P 1'
_cell_length_a   10.57103000
_cell_length_b   6.11122600
_cell_length_c   9.48551737
_cell_angle_alpha   90.00000000
_cell_angle_beta   90.05501545
_cell_angle_gamma   90.00000000
_symmetry_Int_Tables_number   1
_chemical_formula_structural   Li4Fe3Co2Sn3O16
_chemical_formula_sum   'Li8 Fe6 Co4 Sn6 O32'
_cell_volume   612.78266864
_cell_formula_units_Z   2
loop_
 _symmetry_equiv_pos_site_id
 _symmetry_equiv_pos_as_xyz
  1  'x, y, z'
loop_
 _atom_site_type_symbol
 _atom_site_label
 _atom_site_symmetry_multiplicity
 _atom_site_fract_x
 _atom_site_fract_y
 _atom_site_fract_z
 _atom_site_occupancy
  Li  Li0  1  0.67020800  0.00000000  0.88818300  1
  Li  Li1  1  0.98501000  0.00000000  0.98838900  1
  Li  Li2  1  0.98800100  0.00000000  0.50081900  1
  Li  Li3  1  0.33524900  0.00000000  0.39804300  1
  Li  Li4  1  0.17020800  0.50000000  0.88818300  1
  Li  Li5  1  0.48501000  0.50000000  0.98838900  1
  Li  Li6  1  0.48800100  0.50000000  0.50081900  1
  Li  Li7  1  0.83524900  0.50000000  0.39804300  1
  Fe  Fe8  1  0.83246300  0.00000000  0.21245400  1
  Fe  Fe9  1  0.41522900  0.23987200  0.71424300  1
  Fe  Fe10  1  0.41522900  0.76012800  0.71424300  1
  Fe  Fe11  1  0.33246300  0.50000000  0.21245400  1
  Fe  Fe12  1  0.91522900  0.73987200  0.71424300  1
  Fe  Fe13  1  0.91522900  0.26012800  0.71424300  1
  Co  Co14  1  0.67004200  0.00000000  0.48920000  1
  Co  Co15  1  0.33781600  0.00000000  0.97750500  1
  Co  Co16  1  0.17004200  0.50000000  0.48920000  1
  Co  Co17  1  0.83781600  0.50000000  0.97750500  1
  Sn  Sn18  1  0.58536450  0.24575350  0.21067100  1
  Sn  Sn19  1  0.58536450  0.75424650  0.21067100  1
  Sn  Sn20  1  0.17261300  0.00000000  0.71127400  1
  Sn  Sn21  1  0.08536450  0.74575350  0.21067100  1
  Sn  Sn22  1  0.08536450  0.25424650  0.21067100  1
  Sn  Sn23  1  0.67261300  0.50000000  0.71127400  1
  O  O24  1  0.58531750  0.24239150  0.59390800  1
  O  O25  1  0.52429900  0.00000000  0.35158000  1
  O  O26  1  0.67242600  0.00000000  0.09711300  1
  O  O27  1  0.99791200  0.00000000  0.31351500  1
  O  O28  1  0.99745200  0.00000000  0.80039300  1
  O  O29  1  0.58531750  0.75760850  0.59390800  1
  O  O30  1  0.74031500  0.21036700  0.35142600  1
  O  O31  1  0.74031500  0.78963300  0.35142600  1
  O  O32  1  0.16544700  0.00000000  0.09367200  1
  O  O33  1  0.82419700  0.00000000  0.59883900  1
  O  O34  1  0.26568300  0.21523800  0.85050600  1
  O  O35  1  0.26568300  0.78476200  0.85050600  1
  O  O36  1  0.33922600  0.00000000  0.59920700  1
  O  O37  1  0.41469250  0.24935250  0.09931400  1
  O  O38  1  0.47707200  0.00000000  0.84763500  1
  O  O39  1  0.41469250  0.75064750  0.09931400  1
  O  O40  1  0.08531750  0.74239150  0.59390800  1
  O  O41  1  0.02429900  0.50000000  0.35158000  1
  O  O42  1  0.17242600  0.50000000  0.09711300  1
  O  O43  1  0.49791200  0.50000000  0.31351500  1
  O  O44  1  0.49745200  0.50000000  0.80039300  1
  O  O45  1  0.08531750  0.25760850  0.59390800  1
  O  O46  1  0.24031500  0.71036700  0.35142600  1
  O  O47  1  0.24031500  0.28963300  0.35142600  1
  O  O48  1  0.66544700  0.50000000  0.09367200  1
  O  O49  1  0.32419700  0.50000000  0.59883900  1
  O  O50  1  0.76568300  0.71523800  0.85050600  1
  O  O51  1  0.76568300  0.28476200  0.85050600  1
  O  O52  1  0.83922600  0.50000000  0.59920700  1
  O  O53  1  0.91469250  0.74935250  0.09931400  1
  O  O54  1  0.97707200  0.50000000  0.84763500  1
  O  O55  1  0.91469250  0.25064750  0.09931400  1
