# generated using pymatgen
data_Li3NiOF3
_symmetry_space_group_name_H-M   'P 1'
_cell_length_a   9.70041000
_cell_length_b   2.95726600
_cell_length_c   10.11549829
_cell_angle_alpha   90.00000000
_cell_angle_beta   100.30666371
_cell_angle_gamma   90.00000000
_symmetry_Int_Tables_number   1
_chemical_formula_structural   Li3NiOF3
_chemical_formula_sum   'Li12 Ni4 O4 F12'
_cell_volume   285.49791176
_cell_formula_units_Z   4
loop_
 _symmetry_equiv_pos_site_id
 _symmetry_equiv_pos_as_xyz
  1  'x, y, z'
loop_
 _atom_site_type_symbol
 _atom_site_label
 _atom_site_symmetry_multiplicity
 _atom_site_fract_x
 _atom_site_fract_y
 _atom_site_fract_z
 _atom_site_occupancy
  Li  Li0  1  0.74954200  0.50000000  0.11882800  1
  Li  Li1  1  0.00000000  0.50000000  0.00000000  1
  Li  Li2  1  0.00000000  0.50000000  0.50000000  1
  Li  Li3  1  0.99611900  0.00000000  0.74442400  1
  Li  Li4  1  0.75045800  0.00000000  0.88117200  1
  Li  Li5  1  0.50388100  0.50000000  0.25557600  1
  Li  Li6  1  0.24954200  0.00000000  0.11882800  1
  Li  Li7  1  0.50000000  0.00000000  0.00000000  1
  Li  Li8  1  0.50000000  0.00000000  0.50000000  1
  Li  Li9  1  0.49611900  0.50000000  0.74442400  1
  Li  Li10  1  0.25045800  0.50000000  0.88117200  1
  Li  Li11  1  0.00388100  0.00000000  0.25557600  1
  Ni  Ni12  1  0.75496900  0.50000000  0.61675500  1
  Ni  Ni13  1  0.74503100  0.00000000  0.38324500  1
  Ni  Ni14  1  0.25496900  0.00000000  0.61675500  1
  Ni  Ni15  1  0.24503100  0.50000000  0.38324500  1
  O  O16  1  0.62578300  0.50000000  0.43462300  1
  O  O17  1  0.87421700  0.00000000  0.56537700  1
  O  O18  1  0.12578300  0.00000000  0.43462300  1
  O  O19  1  0.37421700  0.50000000  0.56537700  1
  F  F20  1  0.62453500  0.50000000  0.93937700  1
  F  F21  1  0.87369700  0.50000000  0.81850100  1
  F  F22  1  0.86849500  0.50000000  0.30064100  1
  F  F23  1  0.87546500  0.00000000  0.06062300  1
  F  F24  1  0.62630300  0.00000000  0.18149900  1
  F  F25  1  0.63150500  0.00000000  0.69935900  1
  F  F26  1  0.12453500  0.00000000  0.93937700  1
  F  F27  1  0.37369700  0.00000000  0.81850100  1
  F  F28  1  0.36849500  0.00000000  0.30064100  1
  F  F29  1  0.37546500  0.50000000  0.06062300  1
  F  F30  1  0.12630300  0.50000000  0.18149900  1
  F  F31  1  0.13150500  0.50000000  0.69935900  1
