# generated using pymatgen
data_Ti3Cu2Ni(PO4)6
_symmetry_space_group_name_H-M   'P 1'
_cell_length_a   8.62212742
_cell_length_b   8.62212742
_cell_length_c   20.91663810
_cell_angle_alpha   90.00000000
_cell_angle_beta   90.00000000
_cell_angle_gamma   120.00000000
_symmetry_Int_Tables_number   1
_chemical_formula_structural   Ti3Cu2Ni(PO4)6
_chemical_formula_sum   'Ti9 Cu6 Ni3 P18 O72'
_cell_volume   1346.63961849
_cell_formula_units_Z   3
loop_
 _symmetry_equiv_pos_site_id
 _symmetry_equiv_pos_as_xyz
  1  'x, y, z'
loop_
 _atom_site_type_symbol
 _atom_site_label
 _atom_site_symmetry_multiplicity
 _atom_site_fract_x
 _atom_site_fract_y
 _atom_site_fract_z
 _atom_site_occupancy
  Ti  Ti0  1  0.33333333  0.66666667  0.52370767  1
  Ti  Ti1  1  0.33333333  0.66666667  0.31059667  1
  Ti  Ti2  1  0.33333333  0.66666667  0.02230567  1
  Ti  Ti3  1  0.00000000  0.00000000  0.85704100  1
  Ti  Ti4  1  0.00000000  0.00000000  0.64393000  1
  Ti  Ti5  1  0.00000000  0.00000000  0.35563900  1
  Ti  Ti6  1  0.66666667  0.33333333  0.19037433  1
  Ti  Ti7  1  0.66666667  0.33333333  0.97726333  1
  Ti  Ti8  1  0.66666667  0.33333333  0.68897233  1
  Cu  Cu9  1  0.33333333  0.66666667  0.66971367  1
  Cu  Cu10  1  0.33333333  0.66666667  0.16756467  1
  Cu  Cu11  1  0.00000000  0.00000000  0.00304700  1
  Cu  Cu12  1  0.00000000  0.00000000  0.50089800  1
  Cu  Cu13  1  0.66666667  0.33333333  0.33638033  1
  Cu  Cu14  1  0.66666667  0.33333333  0.83423133  1
  Ni  Ni15  1  0.33333333  0.66666667  0.80925067  1
  Ni  Ni16  1  0.00000000  0.00000000  0.14258400  1
  Ni  Ni17  1  0.66666667  0.33333333  0.47591733  1
  P  P18  1  0.37189633  0.33213067  0.08322067  1
  P  P19  1  0.96023433  0.62810367  0.08322067  1
  P  P20  1  0.66786933  0.03976567  0.08322067  1
  P  P21  1  0.99921067  0.29149433  0.24880933  1
  P  P22  1  0.70850567  0.70771633  0.24880933  1
  P  P23  1  0.29228367  0.00078933  0.24880933  1
  P  P24  1  0.03856300  0.66546400  0.41655400  1
  P  P25  1  0.62690100  0.96143700  0.41655400  1
  P  P26  1  0.33453600  0.37309900  0.41655400  1
  P  P27  1  0.66587733  0.62482767  0.58214267  1
  P  P28  1  0.37517233  0.04104967  0.58214267  1
  P  P29  1  0.95895033  0.33412267  0.58214267  1
  P  P30  1  0.70522967  0.99879733  0.74988733  1
  P  P31  1  0.29356767  0.29477033  0.74988733  1
  P  P32  1  0.00120267  0.70643233  0.74988733  1
  P  P33  1  0.33254400  0.95816100  0.91547600  1
  P  P34  1  0.04183900  0.37438300  0.91547600  1
  P  P35  1  0.62561700  0.66745600  0.91547600  1
  O  O36  1  0.32771533  0.47609567  0.35715867  1
  O  O37  1  0.14838033  0.67228467  0.35715867  1
  O  O38  1  0.82903000  0.31181500  0.25597800  1
  O  O39  1  0.52390433  0.85161967  0.35715867  1
  O  O40  1  0.00347033  0.20106667  0.18845667  1
  O  O41  1  0.16655767  0.48470133  0.24760333  1
  O  O42  1  0.68818500  0.51721500  0.25597800  1
  O  O43  1  0.51529867  0.68185633  0.24760333  1
  O  O44  1  0.14487667  0.66742833  0.47667833  1
  O  O45  1  0.31814367  0.83344233  0.24760333  1
  O  O46  1  0.18752500  0.16483200  0.07590900  1
  O  O47  1  0.52255167  0.85512333  0.47667833  1
  O  O48  1  0.79893333  0.80240367  0.18845667  1
  O  O49  1  0.48278500  0.17097000  0.25597800  1
  O  O50  1  0.35701233  0.50464367  0.08846767  1
  O  O51  1  0.19759633  0.99652967  0.18845667  1
  O  O52  1  0.14763133  0.64298767  0.08846767  1
  O  O53  1  0.97730700  0.81247500  0.07590900  1
  O  O54  1  0.49535633  0.85236867  0.08846767  1
  O  O55  1  0.33257167  0.47744833  0.47667833  1
  O  O56  1  0.14539067  0.47709033  0.97667233  1
  O  O57  1  0.83516800  0.02269300  0.07590900  1
  O  O58  1  0.52290967  0.66830033  0.97667233  1
  O  O59  1  0.33169967  0.85460933  0.97667233  1
  O  O60  1  0.99438200  0.80942900  0.69049200  1
  O  O61  1  0.81504700  0.00561800  0.69049200  1
  O  O62  1  0.49569667  0.64514833  0.58931133  1
  O  O63  1  0.19057100  0.18495300  0.69049200  1
  O  O64  1  0.67013700  0.53440000  0.52179000  1
  O  O65  1  0.83322433  0.81803467  0.58093667  1
  O  O66  1  0.35485167  0.85054833  0.58931133  1
  O  O67  1  0.18196533  0.01518967  0.58093667  1
  O  O68  1  0.81154333  0.00076167  0.81001167  1
  O  O69  1  0.98481033  0.16677567  0.58093667  1
  O  O70  1  0.85419167  0.49816533  0.40924233  1
  O  O71  1  0.18921833  0.18845667  0.81001167  1
  O  O72  1  0.46560000  0.13573700  0.52179000  1
  O  O73  1  0.14945167  0.50430333  0.58931133  1
  O  O74  1  0.02367900  0.83797700  0.42180100  1
  O  O75  1  0.86426300  0.32986300  0.52179000  1
  O  O76  1  0.81429800  0.97632100  0.42180100  1
  O  O77  1  0.64397367  0.14580833  0.40924233  1
  O  O78  1  0.16202300  0.18570200  0.42180100  1
  O  O79  1  0.99923833  0.81078167  0.81001167  1
  O  O80  1  0.81205733  0.81042367  0.31000567  1
  O  O81  1  0.50183467  0.35602633  0.40924233  1
  O  O82  1  0.18957633  0.00163367  0.31000567  1
  O  O83  1  0.99836633  0.18794267  0.31000567  1
  O  O84  1  0.66104867  0.14276233  0.02382533  1
  O  O85  1  0.48171367  0.33895133  0.02382533  1
  O  O86  1  0.16236333  0.97848167  0.92264467  1
  O  O87  1  0.85723767  0.51828633  0.02382533  1
  O  O88  1  0.33680367  0.86773333  0.85512333  1
  O  O89  1  0.49989100  0.15136800  0.91427000  1
  O  O90  1  0.02151833  0.18388167  0.92264467  1
  O  O91  1  0.84863200  0.34852300  0.91427000  1
  O  O92  1  0.47821000  0.33409500  0.14334500  1
  O  O93  1  0.65147700  0.50010900  0.91427000  1
  O  O94  1  0.52085833  0.83149867  0.74257567  1
  O  O95  1  0.85588500  0.52179000  0.14334500  1
  O  O96  1  0.13226667  0.46907033  0.85512333  1
  O  O97  1  0.81611833  0.83763667  0.92264467  1
  O  O98  1  0.69034567  0.17131033  0.75513433  1
  O  O99  1  0.53092967  0.66319633  0.85512333  1
  O  O100  1  0.48096467  0.30965433  0.75513433  1
  O  O101  1  0.31064033  0.47914167  0.74257567  1
  O  O102  1  0.82868967  0.51903533  0.75513433  1
  O  O103  1  0.66590500  0.14411500  0.14334500  1
  O  O104  1  0.47872400  0.14375700  0.64333900  1
  O  O105  1  0.16850133  0.68935967  0.74257567  1
  O  O106  1  0.85624300  0.33496700  0.64333900  1
  O  O107  1  0.66503300  0.52127600  0.64333900  1
