# generated using pymatgen
data_Li2Fe3CoO8
_symmetry_space_group_name_H-M   'P 1'
_cell_length_a   8.25131723
_cell_length_b   8.34687315
_cell_length_c   8.27553014
_cell_angle_alpha   90.00000000
_cell_angle_beta   90.01785099
_cell_angle_gamma   90.00000000
_symmetry_Int_Tables_number   1
_chemical_formula_structural   Li2Fe3CoO8
_chemical_formula_sum   'Li8 Fe12 Co4 O32'
_cell_volume   569.95806278
_cell_formula_units_Z   4
loop_
 _symmetry_equiv_pos_site_id
 _symmetry_equiv_pos_as_xyz
  1  'x, y, z'
loop_
 _atom_site_type_symbol
 _atom_site_label
 _atom_site_symmetry_multiplicity
 _atom_site_fract_x
 _atom_site_fract_y
 _atom_site_fract_z
 _atom_site_occupancy
  Li  Li0  1  0.12263150  0.87798300  0.87304550  1
  Li  Li1  1  0.25126750  0.75214900  0.50177450  1
  Li  Li2  1  0.24945650  0.24860200  0.00269950  1
  Li  Li3  1  0.37793050  0.12227600  0.37136050  1
  Li  Li4  1  0.62206950  0.62227600  0.62863950  1
  Li  Li5  1  0.75054350  0.74860200  0.99730050  1
  Li  Li6  1  0.74873250  0.25214900  0.49822550  1
  Li  Li7  1  0.87736850  0.37798300  0.12695450  1
  Fe  Fe8  1  0.12279650  0.62205500  0.12793350  1
  Fe  Fe9  1  0.12202450  0.37831500  0.37115350  1
  Fe  Fe10  1  0.12445850  0.12093300  0.62588850  1
  Fe  Fe11  1  0.37776550  0.87751500  0.12719550  1
  Fe  Fe12  1  0.37641250  0.62447400  0.87120750  1
  Fe  Fe13  1  0.37971450  0.37606500  0.62511550  1
  Fe  Fe14  1  0.62028550  0.87606500  0.37488450  1
  Fe  Fe15  1  0.62358750  0.12447400  0.12879250  1
  Fe  Fe16  1  0.62223450  0.37751500  0.87280450  1
  Fe  Fe17  1  0.87554150  0.62093300  0.37411150  1
  Fe  Fe18  1  0.87797550  0.87831500  0.62884650  1
  Fe  Fe19  1  0.87720350  0.12205500  0.87206650  1
  Co  Co20  1  0.99899050  0.49969600  0.75138050  1
  Co  Co21  1  0.50126050  0.49920800  0.24919950  1
  Co  Co22  1  0.49873950  0.99920800  0.75080050  1
  Co  Co23  1  0.00100950  0.99969600  0.24861950  1
  O  O24  1  0.10224350  0.12643600  0.86155150  1
  O  O25  1  0.10539050  0.89170800  0.62222450  1
  O  O26  1  0.11443450  0.61098800  0.36249250  1
  O  O27  1  0.12762650  0.39578100  0.14485550  1
  O  O28  1  0.12178950  0.14738200  0.38604350  1
  O  O29  1  0.13445050  0.36422000  0.61011250  1
  O  O30  1  0.13610750  0.62271800  0.89560950  1
  O  O31  1  0.14489150  0.85816600  0.12767350  1
  O  O32  1  0.36088250  0.13949600  0.62589150  1
  O  O33  1  0.35772150  0.37701800  0.38713250  1
  O  O34  1  0.36192250  0.63826800  0.11332650  1
  O  O35  1  0.37941250  0.86023600  0.89294450  1
  O  O36  1  0.37249850  0.61124900  0.64540250  1
  O  O37  1  0.38914350  0.38264100  0.86884750  1
  O  O38  1  0.39563750  0.10290000  0.12228150  1
  O  O39  1  0.39611850  0.87343800  0.35488850  1
  O  O40  1  0.60388150  0.37343800  0.64511150  1
  O  O41  1  0.60436250  0.60290000  0.87771850  1
  O  O42  1  0.61085650  0.88264100  0.13115250  1
  O  O43  1  0.62750150  0.11124900  0.35459750  1
  O  O44  1  0.62058750  0.36023600  0.10705550  1
  O  O45  1  0.63807750  0.13826800  0.88667350  1
  O  O46  1  0.64227850  0.87701800  0.61286750  1
  O  O47  1  0.63911750  0.63949600  0.37410850  1
  O  O48  1  0.85510850  0.35816600  0.87232650  1
  O  O49  1  0.86389250  0.12271800  0.10439050  1
  O  O50  1  0.86554950  0.86422000  0.38988750  1
  O  O51  1  0.87821050  0.64738200  0.61395650  1
  O  O52  1  0.87237350  0.89578100  0.85514450  1
  O  O53  1  0.88556550  0.11098800  0.63750750  1
  O  O54  1  0.89460950  0.39170800  0.37777550  1
  O  O55  1  0.89775650  0.62643600  0.13844850  1
