# generated using pymatgen
data_LiP4WO12
_symmetry_space_group_name_H-M   'P 1'
_cell_length_a   6.97315900
_cell_length_b   8.92632300
_cell_length_c   7.48051631
_cell_angle_alpha   90.00000000
_cell_angle_beta   96.29700779
_cell_angle_gamma   90.00000000
_symmetry_Int_Tables_number   1
_chemical_formula_structural   LiP4WO12
_chemical_formula_sum   'Li2 P8 W2 O24'
_cell_volume   462.81302016
_cell_formula_units_Z   2
loop_
 _symmetry_equiv_pos_site_id
 _symmetry_equiv_pos_as_xyz
  1  'x, y, z'
loop_
 _atom_site_type_symbol
 _atom_site_label
 _atom_site_symmetry_multiplicity
 _atom_site_fract_x
 _atom_site_fract_y
 _atom_site_fract_z
 _atom_site_occupancy
  Li  Li0  1  0.30267700  0.51780900  0.68056800  1
  Li  Li1  1  0.69732300  0.01780900  0.31943200  1
  P  P2  1  0.03663100  0.11557000  0.60504400  1
  P  P3  1  0.07300400  0.83145800  0.08948200  1
  P  P4  1  0.42454800  0.98064500  0.61660000  1
  P  P5  1  0.42438200  0.64693900  0.05311000  1
  P  P6  1  0.57561800  0.14693900  0.94689000  1
  P  P7  1  0.57545200  0.48064500  0.38340000  1
  P  P8  1  0.92699600  0.33145800  0.91051800  1
  P  P9  1  0.96336900  0.61557000  0.39495600  1
  W  W10  1  0.25538800  0.18063400  0.24400200  1
  W  W11  1  0.74461200  0.68063400  0.75599800  1
  O  O12  1  0.00441200  0.20216900  0.78753600  1
  O  O13  1  0.96364300  0.81527000  0.90650100  1
  O  O14  1  0.12795900  0.22541600  0.48601100  1
  O  O15  1  0.07341800  0.98205800  0.17982300  1
  O  O16  1  0.20709100  0.99273800  0.66990600  1
  O  O17  1  0.14142400  0.53614600  0.46472600  1
  O  O18  1  0.29864200  0.79656700  0.07642700  1
  O  O19  1  0.31700200  0.53430500  0.93602800  1
  O  O20  1  0.43471800  0.02250900  0.42028000  1
  O  O21  1  0.37889700  0.19224100  0.99376600  1
  O  O22  1  0.54335100  0.10470100  0.73515800  1
  O  O23  1  0.49876700  0.82732400  0.66783900  1
  O  O24  1  0.50123300  0.32732400  0.33216100  1
  O  O25  1  0.45664900  0.60470100  0.26484200  1
  O  O26  1  0.62110300  0.69224100  0.00623400  1
  O  O27  1  0.56528200  0.52250900  0.57972000  1
  O  O28  1  0.68299800  0.03430500  0.06397200  1
  O  O29  1  0.70135800  0.29656700  0.92357300  1
  O  O30  1  0.85857600  0.03614600  0.53527400  1
  O  O31  1  0.79290900  0.49273800  0.33009400  1
  O  O32  1  0.92658200  0.48205800  0.82017700  1
  O  O33  1  0.87204100  0.72541600  0.51398900  1
  O  O34  1  0.03635700  0.31527000  0.09349900  1
  O  O35  1  0.99558800  0.70216900  0.21246400  1
