# generated using pymatgen
data_Bi12Rh12O41
_symmetry_space_group_name_H-M   'P 1'
_cell_length_a   7.31393200
_cell_length_b   10.36199200
_cell_length_c   21.95526000
_cell_angle_alpha   90.00000000
_cell_angle_beta   90.00000000
_cell_angle_gamma   90.00000000
_symmetry_Int_Tables_number   1
_chemical_formula_structural   Bi12Rh12O41
_chemical_formula_sum   'Bi24 Rh24 O82'
_cell_volume   1663.92120107
_cell_formula_units_Z   2
loop_
 _symmetry_equiv_pos_site_id
 _symmetry_equiv_pos_as_xyz
  1  'x, y, z'
loop_
 _atom_site_type_symbol
 _atom_site_label
 _atom_site_symmetry_multiplicity
 _atom_site_fract_x
 _atom_site_fract_y
 _atom_site_fract_z
 _atom_site_occupancy
  Bi  Bi0  1  0.50000000  0.49249100  0.57821250  1
  Bi  Bi1  1  0.24928750  0.24789050  0.83511800  1
  Bi  Bi2  1  0.75071250  0.24789050  0.83511800  1
  Bi  Bi3  1  0.00000000  0.00499100  0.58314350  1
  Bi  Bi4  1  0.00000000  0.99676400  0.75179550  1
  Bi  Bi5  1  0.00000000  0.99249100  0.92178750  1
  Bi  Bi6  1  0.74277900  0.25961600  0.50000000  1
  Bi  Bi7  1  0.74928750  0.74789050  0.66488200  1
  Bi  Bi8  1  0.25722100  0.25961600  0.50000000  1
  Bi  Bi9  1  0.25071250  0.74789050  0.66488200  1
  Bi  Bi10  1  0.50000000  0.50499100  0.91685650  1
  Bi  Bi11  1  0.50000000  0.49676400  0.74820450  1
  Bi  Bi12  1  0.00000000  0.99249100  0.07821250  1
  Bi  Bi13  1  0.74928750  0.74789050  0.33511800  1
  Bi  Bi14  1  0.25071250  0.74789050  0.33511800  1
  Bi  Bi15  1  0.50000000  0.50499100  0.08314350  1
  Bi  Bi16  1  0.50000000  0.49676400  0.25179550  1
  Bi  Bi17  1  0.50000000  0.49249100  0.42178750  1
  Bi  Bi18  1  0.24277900  0.75961600  0.00000000  1
  Bi  Bi19  1  0.24928750  0.24789050  0.16488200  1
  Bi  Bi20  1  0.75722100  0.75961600  0.00000000  1
  Bi  Bi21  1  0.75071250  0.24789050  0.16488200  1
  Bi  Bi22  1  0.00000000  0.00499100  0.41685650  1
  Bi  Bi23  1  0.00000000  0.99676400  0.24820450  1
  Rh  Rh24  1  0.00000000  0.50086000  0.58392650  1
  Rh  Rh25  1  0.75145700  0.24942700  0.66698450  1
  Rh  Rh26  1  0.24854300  0.24942700  0.66698450  1
  Rh  Rh27  1  0.50000000  0.00086000  0.91607350  1
  Rh  Rh28  1  0.50000000  0.99945500  0.75038150  1
  Rh  Rh29  1  0.50000000  0.99882200  0.58299850  1
  Rh  Rh30  1  0.74854300  0.74942700  0.83301550  1
  Rh  Rh31  1  0.25145700  0.74942700  0.83301550  1
  Rh  Rh32  1  0.00000000  0.49882200  0.91700150  1
  Rh  Rh33  1  0.00000000  0.49945500  0.74961850  1
  Rh  Rh34  1  0.74974300  0.75191000  0.50000000  1
  Rh  Rh35  1  0.25025700  0.75191000  0.50000000  1
  Rh  Rh36  1  0.50000000  0.00086000  0.08392650  1
  Rh  Rh37  1  0.25145700  0.74942700  0.16698450  1
  Rh  Rh38  1  0.74854300  0.74942700  0.16698450  1
  Rh  Rh39  1  0.00000000  0.50086000  0.41607350  1
  Rh  Rh40  1  0.00000000  0.49945500  0.25038150  1
  Rh  Rh41  1  0.00000000  0.49882200  0.08299850  1
  Rh  Rh42  1  0.24854300  0.24942700  0.33301550  1
  Rh  Rh43  1  0.75145700  0.24942700  0.33301550  1
  Rh  Rh44  1  0.50000000  0.99882200  0.41700150  1
  Rh  Rh45  1  0.50000000  0.99945500  0.24961850  1
  Rh  Rh46  1  0.24974300  0.25191000  0.00000000  1
  Rh  Rh47  1  0.75025700  0.25191000  0.00000000  1
  O  O48  1  0.21175100  0.62377700  0.56906150  1
  O  O49  1  0.78824900  0.62377700  0.56906150  1
  O  O50  1  0.00000000  0.58418400  0.66649450  1
  O  O51  1  0.79183350  0.37442550  0.73585900  1
  O  O52  1  0.50000000  0.37620400  0.83443250  1
  O  O53  1  0.79291000  0.37551400  0.59800050  1
  O  O54  1  0.20816650  0.37442550  0.73585900  1
  O  O55  1  0.20709000  0.37551400  0.59800050  1
  O  O56  1  0.50000000  0.33374850  0.66569800  1
  O  O57  1  0.50000000  0.66869800  0.50000000  1
  O  O58  1  0.00000000  0.16621700  0.66684650  1
  O  O59  1  0.00000000  0.11130100  0.84203950  1
  O  O60  1  0.29061800  0.12664500  0.59558150  1
  O  O61  1  0.71175100  0.12377700  0.93093850  1
  O  O62  1  0.29171750  0.12451750  0.73625500  1
  O  O63  1  0.28824900  0.12377700  0.93093850  1
  O  O64  1  0.70938200  0.12664500  0.59558150  1
  O  O65  1  0.70828250  0.12451750  0.73625500  1
  O  O66  1  0.50000000  0.08418400  0.83350550  1
  O  O67  1  0.50000000  0.91645850  0.66699000  1
  O  O68  1  0.00000000  0.41521100  0.50000000  1
  O  O69  1  0.29160150  0.87511350  0.56968100  1
  O  O70  1  0.70816650  0.87442550  0.76414100  1
  O  O71  1  0.29183350  0.87442550  0.76414100  1
  O  O72  1  0.70839850  0.87511350  0.56968100  1
  O  O73  1  0.29291000  0.87551400  0.90199950  1
  O  O74  1  0.70709000  0.87551400  0.90199950  1
  O  O75  1  0.00000000  0.87620400  0.66556750  1
  O  O76  1  0.00000000  0.83374850  0.83430200  1
  O  O77  1  0.50000000  0.66621700  0.83315350  1
  O  O78  1  0.00000000  0.15045900  0.50000000  1
  O  O79  1  0.50000000  0.61130100  0.65796050  1
  O  O80  1  0.79061800  0.62664500  0.90441850  1
  O  O81  1  0.20828250  0.62451750  0.76374500  1
  O  O82  1  0.20938200  0.62664500  0.90441850  1
  O  O83  1  0.79171750  0.62451750  0.76374500  1
  O  O84  1  0.50000000  0.08062700  0.50000000  1
  O  O85  1  0.00000000  0.41645850  0.83301000  1
  O  O86  1  0.20839850  0.37511350  0.93031900  1
  O  O87  1  0.79160150  0.37511350  0.93031900  1
  O  O88  1  0.00000000  0.83475700  0.50000000  1
  O  O89  1  0.71175100  0.12377700  0.06906150  1
  O  O90  1  0.28824900  0.12377700  0.06906150  1
  O  O91  1  0.50000000  0.08418400  0.16649450  1
  O  O92  1  0.29183350  0.87442550  0.23585900  1
  O  O93  1  0.00000000  0.87620400  0.33443250  1
  O  O94  1  0.29291000  0.87551400  0.09800050  1
  O  O95  1  0.70816650  0.87442550  0.23585900  1
  O  O96  1  0.70709000  0.87551400  0.09800050  1
  O  O97  1  0.00000000  0.83374850  0.16569800  1
  O  O98  1  0.00000000  0.16869800  0.00000000  1
  O  O99  1  0.50000000  0.66621700  0.16684650  1
  O  O100  1  0.50000000  0.61130100  0.34203950  1
  O  O101  1  0.79061800  0.62664500  0.09558150  1
  O  O102  1  0.21175100  0.62377700  0.43093850  1
  O  O103  1  0.79171750  0.62451750  0.23625500  1
  O  O104  1  0.78824900  0.62377700  0.43093850  1
  O  O105  1  0.20938200  0.62664500  0.09558150  1
  O  O106  1  0.20828250  0.62451750  0.23625500  1
  O  O107  1  0.00000000  0.58418400  0.33350550  1
  O  O108  1  0.00000000  0.41645850  0.16699000  1
  O  O109  1  0.50000000  0.91521100  0.00000000  1
  O  O110  1  0.79160150  0.37511350  0.06968100  1
  O  O111  1  0.20816650  0.37442550  0.26414100  1
  O  O112  1  0.79183350  0.37442550  0.26414100  1
  O  O113  1  0.20839850  0.37511350  0.06968100  1
  O  O114  1  0.79291000  0.37551400  0.40199950  1
  O  O115  1  0.20709000  0.37551400  0.40199950  1
  O  O116  1  0.50000000  0.37620400  0.16556750  1
  O  O117  1  0.50000000  0.33374850  0.33430200  1
  O  O118  1  0.00000000  0.16621700  0.33315350  1
  O  O119  1  0.50000000  0.65045900  0.00000000  1
  O  O120  1  0.00000000  0.11130100  0.15796050  1
  O  O121  1  0.29061800  0.12664500  0.40441850  1
  O  O122  1  0.70828250  0.12451750  0.26374500  1
  O  O123  1  0.70938200  0.12664500  0.40441850  1
  O  O124  1  0.29171750  0.12451750  0.26374500  1
  O  O125  1  0.00000000  0.58062700  0.00000000  1
  O  O126  1  0.50000000  0.91645850  0.33301000  1
  O  O127  1  0.70839850  0.87511350  0.43031900  1
  O  O128  1  0.29160150  0.87511350  0.43031900  1
  O  O129  1  0.50000000  0.33475700  0.00000000  1
