# generated using pymatgen
data_Mn3OF6
_symmetry_space_group_name_H-M   'P 1'
_cell_length_a   4.83223684
_cell_length_b   10.23445471
_cell_length_c   11.63230511
_cell_angle_alpha   114.42972152
_cell_angle_beta   100.31766869
_cell_angle_gamma   89.62003598
_symmetry_Int_Tables_number   1
_chemical_formula_structural   Mn3OF6
_chemical_formula_sum   'Mn12 O4 F24'
_cell_volume   513.84188792
_cell_formula_units_Z   4
loop_
 _symmetry_equiv_pos_site_id
 _symmetry_equiv_pos_as_xyz
  1  'x, y, z'
loop_
 _atom_site_type_symbol
 _atom_site_label
 _atom_site_symmetry_multiplicity
 _atom_site_fract_x
 _atom_site_fract_y
 _atom_site_fract_z
 _atom_site_occupancy
  Mn  Mn0  1  0.01683600  0.98777100  0.98137000  1
  Mn  Mn1  1  0.03620900  0.83898800  0.20879700  1
  Mn  Mn2  1  0.16735900  0.18428900  0.35102900  1
  Mn  Mn3  1  0.48714500  0.48979500  0.97342800  1
  Mn  Mn4  1  0.42029700  0.12707000  0.78623000  1
  Mn  Mn5  1  0.32608900  0.31208300  0.64333900  1
  Mn  Mn6  1  0.31903100  0.53233600  0.51847100  1
  Mn  Mn7  1  0.72227100  0.01599500  0.49802300  1
  Mn  Mn8  1  0.62852300  0.33068600  0.19007200  1
  Mn  Mn9  1  0.88609000  0.63113000  0.79798100  1
  Mn  Mn10  1  0.84872400  0.81334200  0.65300900  1
  Mn  Mn11  1  0.68281100  0.67720700  0.33396800  1
  O  O12  1  0.41175900  0.32391000  0.49279600  1
  O  O13  1  0.52445800  0.14701000  0.64164800  1
  O  O14  1  0.65460400  0.65782300  0.65797100  1
  O  O15  1  0.86694100  0.84673600  0.34787700  1
  F  F16  1  0.13328200  0.79900500  0.79004900  1
  F  F17  1  0.10394600  0.48642300  0.65566300  1
  F  F18  1  0.05182300  0.97235700  0.64284300  1
  F  F19  1  0.25655600  0.09735000  0.91191600  1
  F  F20  1  0.15473900  0.59516000  0.91930800  1
  F  F21  1  0.01100300  0.66891000  0.49261900  1
  F  F22  1  0.17681900  0.29474500  0.78029000  1
  F  F23  1  0.32655600  0.70886000  0.23612200  1
  F  F24  1  0.22337000  0.88139200  0.09468000  1
  F  F25  1  0.37710900  0.02334900  0.36123900  1
  F  F26  1  0.35409100  0.39630500  0.09153400  1
  F  F27  1  0.48205100  0.52656300  0.36096800  1
  F  F28  1  0.37854500  0.20606700  0.21287200  1
  F  F29  1  0.74807800  0.80257800  0.92335800  1
  F  F30  1  0.61407000  0.47840800  0.79218700  1
  F  F31  1  0.67356000  0.97305500  0.78647300  1
  F  F32  1  0.67514900  0.29762200  0.91337000  1
  F  F33  1  0.56094100  0.82783100  0.50923200  1
  F  F34  1  0.76154900  0.66843400  0.09151600  1
  F  F35  1  0.85148600  0.49460300  0.21388800  1
  F  F36  1  0.92427800  0.33538200  0.34079100  1
  F  F37  1  0.97193100  0.17450300  0.50033800  1
  F  F38  1  0.81887500  0.16562400  0.07723900  1
  F  F39  1  0.88858800  0.03215000  0.23438300  1
