# generated using pymatgen
data_LiFeO3
_symmetry_space_group_name_H-M   'P 1'
_cell_length_a   12.91475600
_cell_length_b   2.87958400
_cell_length_c   5.99167024
_cell_angle_alpha   90.00000000
_cell_angle_beta   103.57019142
_cell_angle_gamma   90.00000000
_symmetry_Int_Tables_number   1
_chemical_formula_structural   LiFeO3
_chemical_formula_sum   'Li4 Fe4 O12'
_cell_volume   216.60441252
_cell_formula_units_Z   4
loop_
 _symmetry_equiv_pos_site_id
 _symmetry_equiv_pos_as_xyz
  1  'x, y, z'
loop_
 _atom_site_type_symbol
 _atom_site_label
 _atom_site_symmetry_multiplicity
 _atom_site_fract_x
 _atom_site_fract_y
 _atom_site_fract_z
 _atom_site_occupancy
  Li  Li0  1  0.00000000  0.50000000  0.50000000  1
  Li  Li1  1  0.00000000  0.50000000  0.00000000  1
  Li  Li2  1  0.50000000  0.00000000  0.50000000  1
  Li  Li3  1  0.50000000  0.00000000  0.00000000  1
  Fe  Fe4  1  0.16489200  0.00000000  0.32180600  1
  Fe  Fe5  1  0.33510800  0.50000000  0.67819400  1
  Fe  Fe6  1  0.66489200  0.50000000  0.32180600  1
  Fe  Fe7  1  0.83510800  0.00000000  0.67819400  1
  O  O8  1  0.47470300  0.50000000  0.73621300  1
  O  O9  1  0.32466900  0.00000000  0.45327300  1
  O  O10  1  0.02529700  0.00000000  0.26378700  1
  O  O11  1  0.32882800  0.00000000  0.87301700  1
  O  O12  1  0.17533100  0.50000000  0.54672700  1
  O  O13  1  0.17117200  0.50000000  0.12698300  1
  O  O14  1  0.97470300  0.00000000  0.73621300  1
  O  O15  1  0.82466900  0.50000000  0.45327300  1
  O  O16  1  0.52529700  0.50000000  0.26378700  1
  O  O17  1  0.82882800  0.50000000  0.87301700  1
  O  O18  1  0.67533100  0.00000000  0.54672700  1
  O  O19  1  0.67117200  0.00000000  0.12698300  1
