# generated using pymatgen
data_Li4Fe3Co5O16
_symmetry_space_group_name_H-M   'P 1'
_cell_length_a   9.98220303
_cell_length_b   5.74922923
_cell_length_c   9.17767324
_cell_angle_alpha   90.00000000
_cell_angle_beta   90.83342338
_cell_angle_gamma   90.00000000
_symmetry_Int_Tables_number   1
_chemical_formula_structural   Li4Fe3Co5O16
_chemical_formula_sum   'Li8 Fe6 Co10 O32'
_cell_volume   526.65070308
_cell_formula_units_Z   2
loop_
 _symmetry_equiv_pos_site_id
 _symmetry_equiv_pos_as_xyz
  1  'x, y, z'
loop_
 _atom_site_type_symbol
 _atom_site_label
 _atom_site_symmetry_multiplicity
 _atom_site_fract_x
 _atom_site_fract_y
 _atom_site_fract_z
 _atom_site_occupancy
  Li  Li0  1  0.66454400  0.00000000  0.89769700  1
  Li  Li1  1  0.50454850  0.50000000  0.99699800  1
  Li  Li2  1  0.50522450  0.50000000  0.49497600  1
  Li  Li3  1  0.83113750  0.50000000  0.39189600  1
  Li  Li4  1  0.16454400  0.50000000  0.89769700  1
  Li  Li5  1  0.00454850  0.00000000  0.99699800  1
  Li  Li6  1  0.00522450  0.00000000  0.49497600  1
  Li  Li7  1  0.33113750  0.00000000  0.39189600  1
  Fe  Fe8  1  0.83184100  0.00000000  0.21131100  1
  Fe  Fe9  1  0.91492550  0.25430650  0.71243800  1
  Fe  Fe10  1  0.91492550  0.74569350  0.71243800  1
  Fe  Fe11  1  0.33184100  0.50000000  0.21131100  1
  Fe  Fe12  1  0.41492550  0.75430650  0.71243800  1
  Fe  Fe13  1  0.41492550  0.24569350  0.71243800  1
  Co  Co14  1  0.58578400  0.75769200  0.21298300  1
  Co  Co15  1  0.66481350  0.00000000  0.48365500  1
  Co  Co16  1  0.58578400  0.24230800  0.21298300  1
  Co  Co17  1  0.67412900  0.50000000  0.71333400  1
  Co  Co18  1  0.83119400  0.50000000  0.98771100  1
  Co  Co19  1  0.08578400  0.25769200  0.21298300  1
  Co  Co20  1  0.16481350  0.50000000  0.48365500  1
  Co  Co21  1  0.08578400  0.74230800  0.21298300  1
  Co  Co22  1  0.17412900  0.00000000  0.71333400  1
  Co  Co23  1  0.33119400  0.00000000  0.98771100  1
  O  O24  1  0.58850000  0.75431400  0.59460500  1
  O  O25  1  0.51939900  0.00000000  0.33718400  1
  O  O26  1  0.65744350  0.00000000  0.10815000  1
  O  O27  1  0.50943450  0.50000000  0.30419300  1
  O  O28  1  0.50830900  0.50000000  0.80477200  1
  O  O29  1  0.58850000  0.24568600  0.59460500  1
  O  O30  1  0.73369450  0.78225550  0.34586000  1
  O  O31  1  0.73369450  0.21774450  0.34586000  1
  O  O32  1  0.66899750  0.50000000  0.10249100  1
  O  O33  1  0.83022400  0.00000000  0.59510700  1
  O  O34  1  0.75457650  0.28549650  0.84796800  1
  O  O35  1  0.75457650  0.71450350  0.84796800  1
  O  O36  1  0.82935550  0.50000000  0.60227300  1
  O  O37  1  0.91745050  0.25327150  0.09658900  1
  O  O38  1  0.97461150  0.50000000  0.85299100  1
  O  O39  1  0.91745050  0.74672850  0.09658900  1
  O  O40  1  0.08850000  0.25431400  0.59460500  1
  O  O41  1  0.01939900  0.50000000  0.33718400  1
  O  O42  1  0.15744350  0.50000000  0.10815000  1
  O  O43  1  0.00943450  0.00000000  0.30419300  1
  O  O44  1  0.00830900  0.00000000  0.80477200  1
  O  O45  1  0.08850000  0.74568600  0.59460500  1
  O  O46  1  0.23369450  0.28225550  0.34586000  1
  O  O47  1  0.23369450  0.71774450  0.34586000  1
  O  O48  1  0.16899750  0.00000000  0.10249100  1
  O  O49  1  0.33022400  0.50000000  0.59510700  1
  O  O50  1  0.25457650  0.78549650  0.84796800  1
  O  O51  1  0.25457650  0.21450350  0.84796800  1
  O  O52  1  0.32935550  0.00000000  0.60227300  1
  O  O53  1  0.41745050  0.75327150  0.09658900  1
  O  O54  1  0.47461150  0.00000000  0.85299100  1
  O  O55  1  0.41745050  0.24672850  0.09658900  1
