# generated using pymatgen
data_Ni3OF5
_symmetry_space_group_name_H-M   'P 1'
_cell_length_a   6.63818900
_cell_length_b   3.08301500
_cell_length_c   10.52969084
_cell_angle_alpha   90.00000000
_cell_angle_beta   108.28104513
_cell_angle_gamma   90.00000000
_symmetry_Int_Tables_number   1
_chemical_formula_structural   Ni3OF5
_chemical_formula_sum   'Ni6 O2 F10'
_cell_volume   204.62054773
_cell_formula_units_Z   2
loop_
 _symmetry_equiv_pos_site_id
 _symmetry_equiv_pos_as_xyz
  1  'x, y, z'
loop_
 _atom_site_type_symbol
 _atom_site_label
 _atom_site_symmetry_multiplicity
 _atom_site_fract_x
 _atom_site_fract_y
 _atom_site_fract_z
 _atom_site_occupancy
  Ni  Ni0  1  0.99256300  0.00000000  0.99666900  1
  Ni  Ni1  1  0.51062300  0.50000000  0.00338800  1
  Ni  Ni2  1  0.16565100  0.50000000  0.33127100  1
  Ni  Ni3  1  0.33268300  0.00000000  0.66691100  1
  Ni  Ni4  1  0.67033100  0.00000000  0.34204700  1
  Ni  Ni5  1  0.83122000  0.50000000  0.66250700  1
  O  O6  1  0.69787500  0.00000000  0.00146000  1
  O  O7  1  0.73130400  0.50000000  0.46382800  1
  F  F8  1  0.06660500  0.50000000  0.12971100  1
  F  F9  1  0.63449000  0.00000000  0.66668800  1
  F  F10  1  0.30243400  0.00000000  0.00112300  1
  F  F11  1  0.97017600  0.00000000  0.33250400  1
  F  F12  1  0.60386400  0.50000000  0.20632900  1
  F  F13  1  0.26699900  0.50000000  0.53425000  1
  F  F14  1  0.39789000  0.50000000  0.79825000  1
  F  F15  1  0.03034400  0.00000000  0.66486900  1
  F  F16  1  0.36236300  0.00000000  0.33392400  1
  F  F17  1  0.93258500  0.50000000  0.86427300  1
