# generated using pymatgen
data_Li8NbS6
_symmetry_space_group_name_H-M   'P 1'
_cell_length_a   6.75973542
_cell_length_b   6.75973542
_cell_length_c   18.45273440
_cell_angle_alpha   90.00000000
_cell_angle_beta   90.00000000
_cell_angle_gamma   120.00000000
_symmetry_Int_Tables_number   1
_chemical_formula_structural   Li8NbS6
_chemical_formula_sum   'Li24 Nb3 S18'
_cell_volume   730.21501352
_cell_formula_units_Z   3
loop_
 _symmetry_equiv_pos_site_id
 _symmetry_equiv_pos_as_xyz
  1  'x, y, z'
loop_
 _atom_site_type_symbol
 _atom_site_label
 _atom_site_symmetry_multiplicity
 _atom_site_fract_x
 _atom_site_fract_y
 _atom_site_fract_z
 _atom_site_occupancy
  Li  Li0  1  0.68196933  0.69420667  0.21384767  1
  Li  Li1  1  0.36087333  0.34557067  0.11948567  1
  Li  Li2  1  0.65442933  0.01530267  0.11948567  1
  Li  Li3  1  0.33333333  0.66666667  0.32574567  1
  Li  Li4  1  0.33333333  0.66666667  0.00758767  1
  Li  Li5  1  0.01223733  0.31803067  0.21384767  1
  Li  Li6  1  0.30579333  0.98776267  0.21384767  1
  Li  Li7  1  0.98469733  0.63912667  0.11948567  1
  Li  Li8  1  0.34863600  0.02754000  0.54718100  1
  Li  Li9  1  0.02754000  0.67890400  0.45281900  1
  Li  Li10  1  0.32109600  0.34863600  0.45281900  1
  Li  Li11  1  0.00000000  0.00000000  0.65907900  1
  Li  Li12  1  0.00000000  0.00000000  0.34092100  1
  Li  Li13  1  0.67890400  0.65136400  0.54718100  1
  Li  Li14  1  0.97246000  0.32109600  0.54718100  1
  Li  Li15  1  0.65136400  0.97246000  0.45281900  1
  Li  Li16  1  0.01530267  0.36087333  0.88051433  1
  Li  Li17  1  0.69420667  0.01223733  0.78615233  1
  Li  Li18  1  0.98776267  0.68196933  0.78615233  1
  Li  Li19  1  0.66666667  0.33333333  0.99241233  1
  Li  Li20  1  0.66666667  0.33333333  0.67425433  1
  Li  Li21  1  0.34557067  0.98469733  0.88051433  1
  Li  Li22  1  0.63912667  0.65442933  0.88051433  1
  Li  Li23  1  0.31803067  0.30579333  0.78615233  1
  Nb  Nb24  1  0.00000000  0.00000000  0.00000000  1
  Nb  Nb25  1  0.66666667  0.33333333  0.33333333  1
  Nb  Nb26  1  0.33333333  0.66666667  0.66666667  1
  S  S27  1  0.68336967  0.69413533  0.07787633  1
  S  S28  1  0.36080200  0.34409900  0.25545700  1
  S  S29  1  0.65590100  0.01670300  0.25545700  1
  S  S30  1  0.01076567  0.31663033  0.07787633  1
  S  S31  1  0.30586467  0.98923433  0.07787633  1
  S  S32  1  0.98329700  0.63919800  0.25545700  1
  S  S33  1  0.35003633  0.02746867  0.41120967  1
  S  S34  1  0.02746867  0.67743233  0.58879033  1
  S  S35  1  0.32256767  0.35003633  0.58879033  1
  S  S36  1  0.67743233  0.64996367  0.41120967  1
  S  S37  1  0.97253133  0.32256767  0.41120967  1
  S  S38  1  0.64996367  0.97253133  0.58879033  1
  S  S39  1  0.01670300  0.36080200  0.74454300  1
  S  S40  1  0.69413533  0.01076567  0.92212367  1
  S  S41  1  0.98923433  0.68336967  0.92212367  1
  S  S42  1  0.34409900  0.98329700  0.74454300  1
  S  S43  1  0.63919800  0.65590100  0.74454300  1
  S  S44  1  0.31663033  0.30586467  0.92212367  1
