# generated using pymatgen
data_Li6Mn(FeO3)2
_symmetry_space_group_name_H-M   'P 1'
_cell_length_a   11.68910867
_cell_length_b   3.29718527
_cell_length_c   7.69965584
_cell_angle_alpha   90.00000000
_cell_angle_beta   108.13916468
_cell_angle_gamma   90.00000000
_symmetry_Int_Tables_number   1
_chemical_formula_structural   Li6Mn(FeO3)2
_chemical_formula_sum   'Li12 Mn2 Fe4 O12'
_cell_volume   282.00592111
_cell_formula_units_Z   2
loop_
 _symmetry_equiv_pos_site_id
 _symmetry_equiv_pos_as_xyz
  1  'x, y, z'
loop_
 _atom_site_type_symbol
 _atom_site_label
 _atom_site_symmetry_multiplicity
 _atom_site_fract_x
 _atom_site_fract_y
 _atom_site_fract_z
 _atom_site_occupancy
  Li  Li0  1  0.17908325  0.50000000  0.49115500  1
  Li  Li1  1  0.82091675  0.50000000  0.50884500  1
  Li  Li2  1  0.15436275  0.50000000  0.17500900  1
  Li  Li3  1  0.84563725  0.50000000  0.82499100  1
  Li  Li4  1  0.00975500  0.00000000  0.15425600  1
  Li  Li5  1  0.99024500  0.00000000  0.84574400  1
  Li  Li6  1  0.67908325  0.00000000  0.49115500  1
  Li  Li7  1  0.32091675  0.00000000  0.50884500  1
  Li  Li8  1  0.65436275  0.00000000  0.17500900  1
  Li  Li9  1  0.34563725  0.00000000  0.82499100  1
  Li  Li10  1  0.50975500  0.50000000  0.15425600  1
  Li  Li11  1  0.49024500  0.50000000  0.84574400  1
  Mn  Mn12  1  0.00000000  0.00000000  0.50000000  1
  Mn  Mn13  1  0.50000000  0.50000000  0.50000000  1
  Fe  Fe14  1  0.83119100  0.50000000  0.16691200  1
  Fe  Fe15  1  0.16880900  0.50000000  0.83308800  1
  Fe  Fe16  1  0.33119100  0.00000000  0.16691200  1
  Fe  Fe17  1  0.66880900  0.00000000  0.83308800  1
  O  O18  1  0.69204675  0.50000000  0.63498300  1
  O  O19  1  0.80795325  0.00000000  0.36501700  1
  O  O20  1  0.01982025  0.50000000  0.29771100  1
  O  O21  1  0.98017975  0.50000000  0.70228900  1
  O  O22  1  0.85451400  0.00000000  0.96564500  1
  O  O23  1  0.14548600  0.00000000  0.03435500  1
  O  O24  1  0.19204675  0.00000000  0.63498300  1
  O  O25  1  0.30795325  0.50000000  0.36501700  1
  O  O26  1  0.51982025  0.00000000  0.29771100  1
  O  O27  1  0.48017975  0.00000000  0.70228900  1
  O  O28  1  0.35451400  0.50000000  0.96564500  1
  O  O29  1  0.64548600  0.50000000  0.03435500  1
