# generated using pymatgen
data_Li5Cr17(SiO16)2
_symmetry_space_group_name_H-M   'P 1'
_cell_length_a   11.90465800
_cell_length_b   11.69048800
_cell_length_c   8.44506201
_cell_angle_alpha   90.00000000
_cell_angle_beta   90.23986777
_cell_angle_gamma   90.00000000
_symmetry_Int_Tables_number   1
_chemical_formula_structural   Li5Cr17(SiO16)2
_chemical_formula_sum   'Li10 Cr34 Si4 O64'
_cell_volume   1175.29963325
_cell_formula_units_Z   2
loop_
 _symmetry_equiv_pos_site_id
 _symmetry_equiv_pos_as_xyz
  1  'x, y, z'
loop_
 _atom_site_type_symbol
 _atom_site_label
 _atom_site_symmetry_multiplicity
 _atom_site_fract_x
 _atom_site_fract_y
 _atom_site_fract_z
 _atom_site_occupancy
  Li  Li0  1  0.50207200  0.00000000  0.00356400  1
  Li  Li1  1  0.50052950  0.75356550  0.75223400  1
  Li  Li2  1  0.50052950  0.24643450  0.75223400  1
  Li  Li3  1  0.74571100  0.00000000  0.24531600  1
  Li  Li4  1  0.25357700  0.00000000  0.24417300  1
  Li  Li5  1  0.00207200  0.50000000  0.00356400  1
  Li  Li6  1  0.00052950  0.25356550  0.75223400  1
  Li  Li7  1  0.00052950  0.74643450  0.75223400  1
  Li  Li8  1  0.24571100  0.50000000  0.24531600  1
  Li  Li9  1  0.75357700  0.50000000  0.24417300  1
  Cr  Cr10  1  0.74716000  0.87020400  0.87507100  1
  Cr  Cr11  1  0.74716000  0.12979600  0.87507100  1
  Cr  Cr12  1  0.37807900  0.00000000  0.63124300  1
  Cr  Cr13  1  0.12326600  0.00000000  0.63019000  1
  Cr  Cr14  1  0.62216100  0.00000000  0.62367000  1
  Cr  Cr15  1  0.87766400  0.00000000  0.62180000  1
  Cr  Cr16  1  0.25112450  0.75296850  0.50044300  1
  Cr  Cr17  1  0.25112450  0.24703150  0.50044300  1
  Cr  Cr18  1  0.49950800  0.12268700  0.37460000  1
  Cr  Cr19  1  0.50022500  0.37717000  0.37795700  1
  Cr  Cr20  1  0.49950800  0.87731300  0.37460000  1
  Cr  Cr21  1  0.50022500  0.62283000  0.37795700  1
  Cr  Cr22  1  0.37337400  0.24596900  0.11970800  1
  Cr  Cr23  1  0.62663950  0.25127550  0.11902200  1
  Cr  Cr24  1  0.62663950  0.74872450  0.11902200  1
  Cr  Cr25  1  0.37337400  0.75403100  0.11970800  1
  Cr  Cr26  1  0.99886200  0.00000000  0.99749700  1
  Cr  Cr27  1  0.24716000  0.37020400  0.87507100  1
  Cr  Cr28  1  0.24716000  0.62979600  0.87507100  1
  Cr  Cr29  1  0.87807900  0.50000000  0.63124300  1
  Cr  Cr30  1  0.62326600  0.50000000  0.63019000  1
  Cr  Cr31  1  0.12216100  0.50000000  0.62367000  1
  Cr  Cr32  1  0.37766400  0.50000000  0.62180000  1
  Cr  Cr33  1  0.75112450  0.25296850  0.50044300  1
  Cr  Cr34  1  0.75112450  0.74703150  0.50044300  1
  Cr  Cr35  1  0.99950800  0.62268700  0.37460000  1
  Cr  Cr36  1  0.00022500  0.87717000  0.37795700  1
  Cr  Cr37  1  0.99950800  0.37731300  0.37460000  1
  Cr  Cr38  1  0.00022500  0.12283000  0.37795700  1
  Cr  Cr39  1  0.87337400  0.74596900  0.11970800  1
  Cr  Cr40  1  0.12663950  0.75127550  0.11902200  1
  Cr  Cr41  1  0.12663950  0.24872450  0.11902200  1
  Cr  Cr42  1  0.87337400  0.25403100  0.11970800  1
  Cr  Cr43  1  0.49886200  0.50000000  0.99749700  1
  Si  Si44  1  0.25373250  0.12362150  0.88323600  1
  Si  Si45  1  0.25373250  0.87637850  0.88323600  1
  Si  Si46  1  0.75373250  0.62362150  0.88323600  1
  Si  Si47  1  0.75373250  0.37637850  0.88323600  1
  O  O48  1  0.35727850  0.23372150  0.88231200  1
  O  O49  1  0.35727850  0.76627850  0.88231200  1
  O  O50  1  0.64343550  0.26770050  0.88161800  1
  O  O51  1  0.63927400  0.00000000  0.85970500  1
  O  O52  1  0.64343550  0.73229950  0.88161800  1
  O  O53  1  0.14845400  0.00000000  0.87445700  1
  O  O54  1  0.34920800  0.00000000  0.87264100  1
  O  O55  1  0.86418400  0.00000000  0.86808000  1
  O  O56  1  0.24901250  0.11847250  0.66347300  1
  O  O57  1  0.75144900  0.11937800  0.63301700  1
  O  O58  1  0.75144900  0.88062200  0.63301700  1
  O  O59  1  0.50047550  0.38555050  0.61453900  1
  O  O60  1  0.24901250  0.88152750  0.66347300  1
  O  O61  1  0.49945000  0.88584500  0.61325100  1
  O  O62  1  0.49945000  0.11415500  0.61325100  1
  O  O63  1  0.50047550  0.61444950  0.61453900  1
  O  O64  1  0.38332800  0.00000000  0.39364600  1
  O  O65  1  0.88666700  0.00000000  0.38804300  1
  O  O66  1  0.11626800  0.00000000  0.39351000  1
  O  O67  1  0.62024950  0.74848450  0.36089700  1
  O  O68  1  0.61260200  0.00000000  0.38728800  1
  O  O69  1  0.62024950  0.25151550  0.36089700  1
  O  O70  1  0.37974400  0.25202600  0.36042600  1
  O  O71  1  0.37974400  0.74797400  0.36042600  1
  O  O72  1  0.50175850  0.13870450  0.13816100  1
  O  O73  1  0.49743050  0.63080650  0.13237100  1
  O  O74  1  0.50175850  0.86129550  0.13816100  1
  O  O75  1  0.25071750  0.87066350  0.09417000  1
  O  O76  1  0.49743050  0.36919350  0.13237100  1
  O  O77  1  0.74915100  0.86012800  0.10781900  1
  O  O78  1  0.25071750  0.12933650  0.09417000  1
  O  O79  1  0.74915100  0.13987200  0.10781900  1
  O  O80  1  0.85727850  0.73372150  0.88231200  1
  O  O81  1  0.85727850  0.26627850  0.88231200  1
  O  O82  1  0.14343550  0.76770050  0.88161800  1
  O  O83  1  0.13927400  0.50000000  0.85970500  1
  O  O84  1  0.14343550  0.23229950  0.88161800  1
  O  O85  1  0.64845400  0.50000000  0.87445700  1
  O  O86  1  0.84920800  0.50000000  0.87264100  1
  O  O87  1  0.36418400  0.50000000  0.86808000  1
  O  O88  1  0.74901250  0.61847250  0.66347300  1
  O  O89  1  0.25144900  0.61937800  0.63301700  1
  O  O90  1  0.25144900  0.38062200  0.63301700  1
  O  O91  1  0.00047550  0.88555050  0.61453900  1
  O  O92  1  0.74901250  0.38152750  0.66347300  1
  O  O93  1  0.99945000  0.38584500  0.61325100  1
  O  O94  1  0.99945000  0.61415500  0.61325100  1
  O  O95  1  0.00047550  0.11444950  0.61453900  1
  O  O96  1  0.88332800  0.50000000  0.39364600  1
  O  O97  1  0.38666700  0.50000000  0.38804300  1
  O  O98  1  0.61626800  0.50000000  0.39351000  1
  O  O99  1  0.12024950  0.24848450  0.36089700  1
  O  O100  1  0.11260200  0.50000000  0.38728800  1
  O  O101  1  0.12024950  0.75151550  0.36089700  1
  O  O102  1  0.87974400  0.75202600  0.36042600  1
  O  O103  1  0.87974400  0.24797400  0.36042600  1
  O  O104  1  0.00175850  0.63870450  0.13816100  1
  O  O105  1  0.99743050  0.13080650  0.13237100  1
  O  O106  1  0.00175850  0.36129550  0.13816100  1
  O  O107  1  0.75071750  0.37066350  0.09417000  1
  O  O108  1  0.99743050  0.86919350  0.13237100  1
  O  O109  1  0.24915100  0.36012800  0.10781900  1
  O  O110  1  0.75071750  0.62933650  0.09417000  1
  O  O111  1  0.24915100  0.63987200  0.10781900  1
