# generated using pymatgen
data_TiCo5O12
_symmetry_space_group_name_H-M   'P 1'
_cell_length_a   4.94651997
_cell_length_b   8.58171972
_cell_length_c   9.75164627
_cell_angle_alpha   90.00000000
_cell_angle_beta   90.02380367
_cell_angle_gamma   90.00000000
_symmetry_Int_Tables_number   1
_chemical_formula_structural   TiCo5O12
_chemical_formula_sum   'Ti2 Co10 O24'
_cell_volume   413.95391589
_cell_formula_units_Z   2
loop_
 _symmetry_equiv_pos_site_id
 _symmetry_equiv_pos_as_xyz
  1  'x, y, z'
loop_
 _atom_site_type_symbol
 _atom_site_label
 _atom_site_symmetry_multiplicity
 _atom_site_fract_x
 _atom_site_fract_y
 _atom_site_fract_z
 _atom_site_occupancy
  Ti  Ti0  1  0.00000000  0.00000000  0.00000000  1
  Ti  Ti1  1  0.50000000  0.50000000  0.00000000  1
  Co  Co2  1  0.00000000  0.50000000  0.50000000  1
  Co  Co3  1  0.50000000  0.33330800  0.50000000  1
  Co  Co4  1  0.00000000  0.16669200  0.50000000  1
  Co  Co5  1  0.00000000  0.33338325  0.00000000  1
  Co  Co6  1  0.50000000  0.16661675  0.00000000  1
  Co  Co7  1  0.50000000  0.00000000  0.50000000  1
  Co  Co8  1  0.00000000  0.83330800  0.50000000  1
  Co  Co9  1  0.50000000  0.66669200  0.50000000  1
  Co  Co10  1  0.50000000  0.83338325  0.00000000  1
  Co  Co11  1  0.00000000  0.66661675  0.00000000  1
  O  O12  1  0.33376575  0.50000000  0.59570800  1
  O  O13  1  0.66623425  0.50000000  0.40429200  1
  O  O14  1  0.15496875  0.50000000  0.10054300  1
  O  O15  1  0.34503125  0.00000000  0.89945700  1
  O  O16  1  0.67252400  0.32750250  0.10041400  1
  O  O17  1  0.32747600  0.32750250  0.89958600  1
  O  O18  1  0.17252400  0.17249750  0.10041400  1
  O  O19  1  0.82747600  0.17249750  0.89958600  1
  O  O20  1  0.66644550  0.16680500  0.40486500  1
  O  O21  1  0.16644550  0.33319500  0.40486500  1
  O  O22  1  0.33355450  0.16680500  0.59513500  1
  O  O23  1  0.83355450  0.33319500  0.59513500  1
  O  O24  1  0.83376575  0.00000000  0.59570800  1
  O  O25  1  0.16623425  0.00000000  0.40429200  1
  O  O26  1  0.65496875  0.00000000  0.10054300  1
  O  O27  1  0.84503125  0.50000000  0.89945700  1
  O  O28  1  0.17252400  0.82750250  0.10041400  1
  O  O29  1  0.82747600  0.82750250  0.89958600  1
  O  O30  1  0.67252400  0.67249750  0.10041400  1
  O  O31  1  0.32747600  0.67249750  0.89958600  1
  O  O32  1  0.16644550  0.66680500  0.40486500  1
  O  O33  1  0.66644550  0.83319500  0.40486500  1
  O  O34  1  0.83355450  0.66680500  0.59513500  1
  O  O35  1  0.33355450  0.83319500  0.59513500  1
