# generated using pymatgen
data_Co3BiO8
_symmetry_space_group_name_H-M   'P 1'
_cell_length_a   5.65273385
_cell_length_b   5.65273385
_cell_length_c   15.78531226
_cell_angle_alpha   90.00000000
_cell_angle_beta   90.00000000
_cell_angle_gamma   120.00000000
_symmetry_Int_Tables_number   1
_chemical_formula_structural   Co3BiO8
_chemical_formula_sum   'Co9 Bi3 O24'
_cell_volume   436.81836163
_cell_formula_units_Z   3
loop_
 _symmetry_equiv_pos_site_id
 _symmetry_equiv_pos_as_xyz
  1  'x, y, z'
loop_
 _atom_site_type_symbol
 _atom_site_label
 _atom_site_symmetry_multiplicity
 _atom_site_fract_x
 _atom_site_fract_y
 _atom_site_fract_z
 _atom_site_occupancy
  Co  Co0  1  0.00000000  0.50000000  0.00000000  1
  Co  Co1  1  0.50000000  0.50000000  0.00000000  1
  Co  Co2  1  0.50000000  0.00000000  0.00000000  1
  Co  Co3  1  0.66666667  0.83333333  0.33333333  1
  Co  Co4  1  0.16666667  0.83333333  0.33333333  1
  Co  Co5  1  0.16666667  0.33333333  0.33333333  1
  Co  Co6  1  0.33333333  0.16666667  0.66666667  1
  Co  Co7  1  0.83333333  0.16666667  0.66666667  1
  Co  Co8  1  0.83333333  0.66666667  0.66666667  1
  Bi  Bi9  1  0.33333333  0.66666667  0.16666667  1
  Bi  Bi10  1  1.00000000  1.00000000  0.50000000  1
  Bi  Bi11  1  0.66666667  0.33333333  0.83333333  1
  O  O12  1  0.17701233  0.82298767  0.06675967  1
  O  O13  1  0.64597533  0.82298767  0.06675967  1
  O  O14  1  0.66666667  0.33333333  0.05735433  1
  O  O15  1  0.17701233  0.35402467  0.06675967  1
  O  O16  1  0.48965433  0.97930867  0.26657367  1
  O  O17  1  0.00000000  0.00000000  0.27597900  1
  O  O18  1  0.02069133  0.51034567  0.26657367  1
  O  O19  1  0.48965433  0.51034567  0.26657367  1
  O  O20  1  0.84367900  0.15632100  0.40009300  1
  O  O21  1  0.31264200  0.15632100  0.40009300  1
  O  O22  1  0.33333333  0.66666667  0.39068767  1
  O  O23  1  0.84367900  0.68735800  0.40009300  1
  O  O24  1  0.15632100  0.31264200  0.59990700  1
  O  O25  1  0.66666667  0.33333333  0.60931233  1
  O  O26  1  0.68735800  0.84367900  0.59990700  1
  O  O27  1  0.15632100  0.84367900  0.59990700  1
  O  O28  1  0.51034567  0.48965433  0.73342633  1
  O  O29  1  0.97930867  0.48965433  0.73342633  1
  O  O30  1  0.00000000  0.00000000  0.72402100  1
  O  O31  1  0.51034567  0.02069133  0.73342633  1
  O  O32  1  0.82298767  0.64597533  0.93324033  1
  O  O33  1  0.33333333  0.66666667  0.94264567  1
  O  O34  1  0.35402467  0.17701233  0.93324033  1
  O  O35  1  0.82298767  0.17701233  0.93324033  1
