# generated using pymatgen
data_CrFe2O5
_symmetry_space_group_name_H-M   'P 1'
_cell_length_a   3.77573000
_cell_length_b   9.94678800
_cell_length_c   9.89348100
_cell_angle_alpha   90.00000000
_cell_angle_beta   90.00000000
_cell_angle_gamma   90.00000000
_symmetry_Int_Tables_number   1
_chemical_formula_structural   CrFe2O5
_chemical_formula_sum   'Cr4 Fe8 O20'
_cell_volume   371.56338989
_cell_formula_units_Z   4
loop_
 _symmetry_equiv_pos_site_id
 _symmetry_equiv_pos_as_xyz
  1  'x, y, z'
loop_
 _atom_site_type_symbol
 _atom_site_label
 _atom_site_symmetry_multiplicity
 _atom_site_fract_x
 _atom_site_fract_y
 _atom_site_fract_z
 _atom_site_occupancy
  Cr  Cr0  1  0.00000000  0.18407100  0.75000000  1
  Cr  Cr1  1  0.50000000  0.31592900  0.25000000  1
  Cr  Cr2  1  0.50000000  0.68407100  0.75000000  1
  Cr  Cr3  1  0.00000000  0.81592900  0.25000000  1
  Fe  Fe4  1  0.00000000  0.13922300  0.06244600  1
  Fe  Fe5  1  0.00000000  0.13922300  0.43755400  1
  Fe  Fe6  1  0.50000000  0.36077700  0.93755400  1
  Fe  Fe7  1  0.50000000  0.36077700  0.56244600  1
  Fe  Fe8  1  0.50000000  0.63922300  0.06244600  1
  Fe  Fe9  1  0.50000000  0.63922300  0.43755400  1
  Fe  Fe10  1  0.00000000  0.86077700  0.93755400  1
  Fe  Fe11  1  0.00000000  0.86077700  0.56244600  1
  O  O12  1  0.00000000  0.30546200  0.91722000  1
  O  O13  1  0.00000000  0.30546200  0.58278000  1
  O  O14  1  0.00000000  0.04939600  0.61817200  1
  O  O15  1  0.00000000  0.04939600  0.88182800  1
  O  O16  1  0.00000000  0.25122500  0.25000000  1
  O  O17  1  0.50000000  0.24877500  0.75000000  1
  O  O18  1  0.50000000  0.45060400  0.11817200  1
  O  O19  1  0.50000000  0.19453800  0.08278000  1
  O  O20  1  0.50000000  0.19453800  0.41722000  1
  O  O21  1  0.50000000  0.45060400  0.38182800  1
  O  O22  1  0.50000000  0.80546200  0.91722000  1
  O  O23  1  0.50000000  0.80546200  0.58278000  1
  O  O24  1  0.50000000  0.54939600  0.61817200  1
  O  O25  1  0.50000000  0.54939600  0.88182800  1
  O  O26  1  0.50000000  0.75122500  0.25000000  1
  O  O27  1  0.00000000  0.74877500  0.75000000  1
  O  O28  1  0.00000000  0.95060400  0.11817200  1
  O  O29  1  0.00000000  0.69453800  0.08278000  1
  O  O30  1  0.00000000  0.69453800  0.41722000  1
  O  O31  1  0.00000000  0.95060400  0.38182800  1
