# generated using pymatgen
data_Sr7Bi23O40
_symmetry_space_group_name_H-M   'P 1'
_cell_length_a   19.77745600
_cell_length_b   20.08592000
_cell_length_c   6.92548501
_cell_angle_alpha   90.00000000
_cell_angle_beta   96.77260663
_cell_angle_gamma   90.00000000
_symmetry_Int_Tables_number   1
_chemical_formula_structural   Sr7Bi23O40
_chemical_formula_sum   'Sr14 Bi46 O80'
_cell_volume   2731.94040255
_cell_formula_units_Z   2
loop_
 _symmetry_equiv_pos_site_id
 _symmetry_equiv_pos_as_xyz
  1  'x, y, z'
loop_
 _atom_site_type_symbol
 _atom_site_label
 _atom_site_symmetry_multiplicity
 _atom_site_fract_x
 _atom_site_fract_y
 _atom_site_fract_z
 _atom_site_occupancy
  Sr  Sr0  1  0.50000000  0.79827900  0.00000000  1
  Sr  Sr1  1  0.50000000  0.20172100  0.00000000  1
  Sr  Sr2  1  0.50000000  0.90049500  0.50000000  1
  Sr  Sr3  1  0.50000000  0.59886400  0.00000000  1
  Sr  Sr4  1  0.50000000  0.40113600  0.00000000  1
  Sr  Sr5  1  0.50000000  0.09950500  0.50000000  1
  Sr  Sr6  1  0.00000000  0.00000000  0.50000000  1
  Sr  Sr7  1  0.00000000  0.29827900  0.00000000  1
  Sr  Sr8  1  0.00000000  0.70172100  0.00000000  1
  Sr  Sr9  1  0.00000000  0.40049500  0.50000000  1
  Sr  Sr10  1  0.00000000  0.09886400  0.00000000  1
  Sr  Sr11  1  0.00000000  0.90113600  0.00000000  1
  Sr  Sr12  1  0.00000000  0.59950500  0.50000000  1
  Sr  Sr13  1  0.50000000  0.50000000  0.50000000  1
  Bi  Bi14  1  0.50000000  0.00000000  0.00000000  1
  Bi  Bi15  1  0.66025450  0.80523150  0.38031600  1
  Bi  Bi16  1  0.84098300  0.00000000  0.12655200  1
  Bi  Bi17  1  0.50000000  0.69986400  0.50000000  1
  Bi  Bi18  1  0.33967050  0.89872450  0.10623700  1
  Bi  Bi19  1  0.33870650  0.69556550  0.11873500  1
  Bi  Bi20  1  0.33974550  0.80523150  0.61968400  1
  Bi  Bi21  1  0.66272400  0.00000000  0.37929900  1
  Bi  Bi22  1  0.33967050  0.10127550  0.10623700  1
  Bi  Bi23  1  0.66025450  0.19476850  0.38031600  1
  Bi  Bi24  1  0.33870650  0.30443450  0.11873500  1
  Bi  Bi25  1  0.16208700  0.10215900  0.39867300  1
  Bi  Bi26  1  0.66032950  0.89872450  0.89376300  1
  Bi  Bi27  1  0.83791300  0.10215900  0.60132700  1
  Bi  Bi28  1  0.33727600  0.00000000  0.62070100  1
  Bi  Bi29  1  0.66032950  0.10127550  0.89376300  1
  Bi  Bi30  1  0.15901700  0.00000000  0.87344800  1
  Bi  Bi31  1  0.50000000  0.30013600  0.50000000  1
  Bi  Bi32  1  0.33974550  0.19476850  0.61968400  1
  Bi  Bi33  1  0.16208700  0.89784100  0.39867300  1
  Bi  Bi34  1  0.66129350  0.30443450  0.88126500  1
  Bi  Bi35  1  0.83791300  0.89784100  0.60132700  1
  Bi  Bi36  1  0.66129350  0.69556550  0.88126500  1
  Bi  Bi37  1  0.00000000  0.50000000  0.00000000  1
  Bi  Bi38  1  0.16025450  0.30523150  0.38031600  1
  Bi  Bi39  1  0.34098300  0.50000000  0.12655200  1
  Bi  Bi40  1  0.00000000  0.19986400  0.50000000  1
  Bi  Bi41  1  0.83967050  0.39872450  0.10623700  1
  Bi  Bi42  1  0.83870650  0.19556550  0.11873500  1
  Bi  Bi43  1  0.83974550  0.30523150  0.61968400  1
  Bi  Bi44  1  0.16272400  0.50000000  0.37929900  1
  Bi  Bi45  1  0.83967050  0.60127550  0.10623700  1
  Bi  Bi46  1  0.16025450  0.69476850  0.38031600  1
  Bi  Bi47  1  0.83870650  0.80443450  0.11873500  1
  Bi  Bi48  1  0.66208700  0.60215900  0.39867300  1
  Bi  Bi49  1  0.16032950  0.39872450  0.89376300  1
  Bi  Bi50  1  0.33791300  0.60215900  0.60132700  1
  Bi  Bi51  1  0.83727600  0.50000000  0.62070100  1
  Bi  Bi52  1  0.16032950  0.60127550  0.89376300  1
  Bi  Bi53  1  0.65901700  0.50000000  0.87344800  1
  Bi  Bi54  1  0.00000000  0.80013600  0.50000000  1
  Bi  Bi55  1  0.83974550  0.69476850  0.61968400  1
  Bi  Bi56  1  0.66208700  0.39784100  0.39867300  1
  Bi  Bi57  1  0.16129350  0.80443450  0.88126500  1
  Bi  Bi58  1  0.33791300  0.39784100  0.60132700  1
  Bi  Bi59  1  0.16129350  0.19556550  0.88126500  1
  O  O60  1  0.65102300  0.79139000  0.04069700  1
  O  O61  1  0.44460850  0.69501450  0.17125900  1
  O  O62  1  0.44574950  0.90440350  0.13355500  1
  O  O63  1  0.66296200  0.00000000  0.03494700  1
  O  O64  1  0.55446000  0.79915900  0.35626100  1
  O  O65  1  0.65443150  0.90588250  0.56754200  1
  O  O66  1  0.34556850  0.90588250  0.43245800  1
  O  O67  1  0.65102300  0.20861000  0.04069700  1
  O  O68  1  0.85427100  0.00000000  0.48945300  1
  O  O69  1  0.55653200  0.00000000  0.32853100  1
  O  O70  1  0.44574950  0.09559650  0.13355500  1
  O  O71  1  0.15657200  0.09385300  0.07413200  1
  O  O72  1  0.55539150  0.69501450  0.82874100  1
  O  O73  1  0.44554000  0.79915900  0.64373900  1
  O  O74  1  0.55446000  0.20084100  0.35626100  1
  O  O75  1  0.55425050  0.90440350  0.86644500  1
  O  O76  1  0.15657200  0.90614700  0.07413200  1
  O  O77  1  0.55583800  0.61154800  0.37091200  1
  O  O78  1  0.44346800  0.00000000  0.67146900  1
  O  O79  1  0.14572900  0.00000000  0.51054700  1
  O  O80  1  0.44460850  0.30498550  0.17125900  1
  O  O81  1  0.44416200  0.61154800  0.62908800  1
  O  O82  1  0.34556850  0.09411750  0.43245800  1
  O  O83  1  0.65443150  0.09411750  0.56754200  1
  O  O84  1  0.34897700  0.79139000  0.95930300  1
  O  O85  1  0.33105350  0.71282850  0.44491300  1
  O  O86  1  0.55583800  0.38845200  0.37091200  1
  O  O87  1  0.33105350  0.28717150  0.44491300  1
  O  O88  1  0.66894650  0.28717150  0.55508700  1
  O  O89  1  0.33703800  0.00000000  0.96505300  1
  O  O90  1  0.44554000  0.20084100  0.64373900  1
  O  O91  1  0.66894650  0.71282850  0.55508700  1
  O  O92  1  0.55425050  0.09559650  0.86644500  1
  O  O93  1  0.94636400  0.00000000  0.15403800  1
  O  O94  1  0.84342800  0.09385300  0.92586800  1
  O  O95  1  0.55539150  0.30498550  0.82874100  1
  O  O96  1  0.44416200  0.38845200  0.62908800  1
  O  O97  1  0.34897700  0.20861000  0.95930300  1
  O  O98  1  0.84342800  0.90614700  0.92586800  1
  O  O99  1  0.05363600  0.00000000  0.84596200  1
  O  O100  1  0.15102300  0.29139000  0.04069700  1
  O  O101  1  0.94460850  0.19501450  0.17125900  1
  O  O102  1  0.94574950  0.40440350  0.13355500  1
  O  O103  1  0.16296200  0.50000000  0.03494700  1
  O  O104  1  0.05446000  0.29915900  0.35626100  1
  O  O105  1  0.15443150  0.40588250  0.56754200  1
  O  O106  1  0.84556850  0.40588250  0.43245800  1
  O  O107  1  0.15102300  0.70861000  0.04069700  1
  O  O108  1  0.35427100  0.50000000  0.48945300  1
  O  O109  1  0.05653200  0.50000000  0.32853100  1
  O  O110  1  0.94574950  0.59559650  0.13355500  1
  O  O111  1  0.65657200  0.59385300  0.07413200  1
  O  O112  1  0.05539150  0.19501450  0.82874100  1
  O  O113  1  0.94554000  0.29915900  0.64373900  1
  O  O114  1  0.05446000  0.70084100  0.35626100  1
  O  O115  1  0.05425050  0.40440350  0.86644500  1
  O  O116  1  0.65657200  0.40614700  0.07413200  1
  O  O117  1  0.05583800  0.11154800  0.37091200  1
  O  O118  1  0.94346800  0.50000000  0.67146900  1
  O  O119  1  0.64572900  0.50000000  0.51054700  1
  O  O120  1  0.94460850  0.80498550  0.17125900  1
  O  O121  1  0.94416200  0.11154800  0.62908800  1
  O  O122  1  0.84556850  0.59411750  0.43245800  1
  O  O123  1  0.15443150  0.59411750  0.56754200  1
  O  O124  1  0.84897700  0.29139000  0.95930300  1
  O  O125  1  0.83105350  0.21282850  0.44491300  1
  O  O126  1  0.05583800  0.88845200  0.37091200  1
  O  O127  1  0.83105350  0.78717150  0.44491300  1
  O  O128  1  0.16894650  0.78717150  0.55508700  1
  O  O129  1  0.83703800  0.50000000  0.96505300  1
  O  O130  1  0.94554000  0.70084100  0.64373900  1
  O  O131  1  0.16894650  0.21282850  0.55508700  1
  O  O132  1  0.05425050  0.59559650  0.86644500  1
  O  O133  1  0.44636400  0.50000000  0.15403800  1
  O  O134  1  0.34342800  0.59385300  0.92586800  1
  O  O135  1  0.05539150  0.80498550  0.82874100  1
  O  O136  1  0.94416200  0.88845200  0.62908800  1
  O  O137  1  0.84897700  0.70861000  0.95930300  1
  O  O138  1  0.34342800  0.40614700  0.92586800  1
  O  O139  1  0.55363600  0.50000000  0.84596200  1
