# generated using pymatgen
data_Li3VPCO7
_symmetry_space_group_name_H-M   'P 1'
_cell_length_a   5.20433187
_cell_length_b   6.70294300
_cell_length_c   8.34931113
_cell_angle_alpha   90.00000000
_cell_angle_beta   92.39889343
_cell_angle_gamma   90.00000000
_symmetry_Int_Tables_number   1
_chemical_formula_structural   Li3VPCO7
_chemical_formula_sum   'Li6 V2 P2 C2 O14'
_cell_volume   291.00495834
_cell_formula_units_Z   2
loop_
 _symmetry_equiv_pos_site_id
 _symmetry_equiv_pos_as_xyz
  1  'x, y, z'
loop_
 _atom_site_type_symbol
 _atom_site_label
 _atom_site_symmetry_multiplicity
 _atom_site_fract_x
 _atom_site_fract_y
 _atom_site_fract_z
 _atom_site_occupancy
  Li  Li0  1  0.04863450  0.51324200  0.00499800  1
  Li  Li1  1  0.95136550  0.01324200  0.99500200  1
  Li  Li2  1  0.41379250  0.23264000  0.83775300  1
  Li  Li3  1  0.58620750  0.73264000  0.16224700  1
  Li  Li4  1  0.42827050  0.35365200  0.49953600  1
  Li  Li5  1  0.57172950  0.85365200  0.50046400  1
  V  V6  1  0.93369150  0.24919700  0.26641300  1
  V  V7  1  0.06630850  0.74919700  0.73358700  1
  P  P8  1  0.96015050  0.25116000  0.67573700  1
  P  P9  1  0.03984950  0.75116000  0.32426300  1
  C  C10  1  0.52845150  0.74197900  0.85264700  1
  C  C11  1  0.47154850  0.24197900  0.14735300  1
  O  O12  1  0.34199250  0.72901700  0.95302600  1
  O  O13  1  0.65800750  0.22901700  0.04697400  1
  O  O14  1  0.76375250  0.75352400  0.90816000  1
  O  O15  1  0.23624750  0.25352400  0.09184000  1
  O  O16  1  0.07436250  0.06764500  0.77212200  1
  O  O17  1  0.92563750  0.56764500  0.22787800  1
  O  O18  1  0.06937550  0.43255800  0.77513700  1
  O  O19  1  0.93062450  0.93255800  0.22486300  1
  O  O20  1  0.47165650  0.74583300  0.70074600  1
  O  O21  1  0.52834350  0.24583300  0.29925400  1
  O  O22  1  0.66318050  0.24397500  0.66392400  1
  O  O23  1  0.33681950  0.74397500  0.33607600  1
  O  O24  1  0.07847850  0.26010700  0.50860800  1
  O  O25  1  0.92152150  0.76010700  0.49139200  1
