# generated using pymatgen
data_Li2MnSi3O8
_symmetry_space_group_name_H-M   'P 1'
_cell_length_a   5.07059148
_cell_length_b   6.30281682
_cell_length_c   6.41185960
_cell_angle_alpha   76.92666447
_cell_angle_beta   73.93595698
_cell_angle_gamma   73.11023865
_symmetry_Int_Tables_number   1
_chemical_formula_structural   Li2MnSi3O8
_chemical_formula_sum   'Li2 Mn1 Si3 O8'
_cell_volume   186.03753141
_cell_formula_units_Z   1
loop_
 _symmetry_equiv_pos_site_id
 _symmetry_equiv_pos_as_xyz
  1  'x, y, z'
loop_
 _atom_site_type_symbol
 _atom_site_label
 _atom_site_symmetry_multiplicity
 _atom_site_fract_x
 _atom_site_fract_y
 _atom_site_fract_z
 _atom_site_occupancy
  Li  Li0  1  0.28236900  0.64397950  0.14542350  1
  Li  Li1  1  0.77739900  0.30068400  0.89112750  1
  Mn  Mn2  1  0.62167900  0.27506700  0.38600500  1
  Si  Si3  1  0.29451700  0.11267400  0.17685450  1
  Si  Si4  1  0.33533600  0.76381850  0.59485850  1
  Si  Si5  1  0.72347800  0.88902150  0.80683200  1
  O  O6  1  0.98029900  0.15812350  0.14136450  1
  O  O7  1  0.06014700  0.76620750  0.81355750  1
  O  O8  1  0.42194000  0.33245400  0.11244000  1
  O  O9  1  0.35864800  0.58434900  0.44666550  1
  O  O10  1  0.70385400  0.14254550  0.68652850  1
  O  O11  1  0.31292600  0.01820650  0.44264100  1
  O  O12  1  0.51224500  0.89282350  0.05534300  1
  O  O13  1  0.61516100  0.71864850  0.70176150  1
