# generated using pymatgen
data_Li5Cr2Fe5O12
_symmetry_space_group_name_H-M   'P 1'
_cell_length_a   5.09196200
_cell_length_b   9.00092800
_cell_length_c   9.77930284
_cell_angle_alpha   90.00000000
_cell_angle_beta   101.04576466
_cell_angle_gamma   90.00000000
_symmetry_Int_Tables_number   1
_chemical_formula_structural   Li5Cr2Fe5O12
_chemical_formula_sum   'Li10 Cr4 Fe10 O24'
_cell_volume   439.90544851
_cell_formula_units_Z   2
loop_
 _symmetry_equiv_pos_site_id
 _symmetry_equiv_pos_as_xyz
  1  'x, y, z'
loop_
 _atom_site_type_symbol
 _atom_site_label
 _atom_site_symmetry_multiplicity
 _atom_site_fract_x
 _atom_site_fract_y
 _atom_site_fract_z
 _atom_site_occupancy
  Li  Li0  1  0.75110400  0.91788200  0.74621500  1
  Li  Li1  1  0.25068750  0.58207250  0.25388900  1
  Li  Li2  1  0.24889600  0.91788200  0.25378500  1
  Li  Li3  1  0.74931250  0.58207250  0.74611100  1
  Li  Li4  1  0.00000000  0.91905200  0.50000000  1
  Li  Li5  1  0.25110400  0.41788200  0.74621500  1
  Li  Li6  1  0.75068750  0.08207250  0.25388900  1
  Li  Li7  1  0.74889600  0.41788200  0.25378500  1
  Li  Li8  1  0.24931250  0.08207250  0.74611100  1
  Li  Li9  1  0.50000000  0.41905200  0.50000000  1
  Cr  Cr10  1  0.50000000  0.74912900  0.50000000  1
  Cr  Cr11  1  0.00000000  0.75043400  0.00000000  1
  Cr  Cr12  1  0.00000000  0.24912900  0.50000000  1
  Cr  Cr13  1  0.50000000  0.25043400  0.00000000  1
  Fe  Fe14  1  0.50000000  0.58232200  0.00000000  1
  Fe  Fe15  1  0.74917050  0.75383250  0.25323400  1
  Fe  Fe16  1  0.25082950  0.75383250  0.74676600  1
  Fe  Fe17  1  0.50000000  0.92399900  0.00000000  1
  Fe  Fe18  1  0.00000000  0.58023000  0.50000000  1
  Fe  Fe19  1  0.00000000  0.08232200  0.00000000  1
  Fe  Fe20  1  0.24917050  0.25383250  0.25323400  1
  Fe  Fe21  1  0.75082950  0.25383250  0.74676600  1
  Fe  Fe22  1  0.00000000  0.42399900  0.00000000  1
  Fe  Fe23  1  0.50000000  0.08023000  0.50000000  1
  O  O24  1  0.64157350  0.59455650  0.38113000  1
  O  O25  1  0.35842650  0.59455650  0.61887000  1
  O  O26  1  0.62513150  0.74628850  0.87469700  1
  O  O27  1  0.37486850  0.74628850  0.12530300  1
  O  O28  1  0.61674350  0.91109850  0.38217300  1
  O  O29  1  0.38325650  0.91109850  0.61782700  1
  O  O30  1  0.12986050  0.59848250  0.87616900  1
  O  O31  1  0.87013950  0.59848250  0.12383100  1
  O  O32  1  0.11908050  0.73676650  0.38342400  1
  O  O33  1  0.88091950  0.73676650  0.61657600  1
  O  O34  1  0.11858500  0.90643800  0.87447200  1
  O  O35  1  0.88141500  0.90643800  0.12552800  1
  O  O36  1  0.14157350  0.09455650  0.38113000  1
  O  O37  1  0.85842650  0.09455650  0.61887000  1
  O  O38  1  0.12513150  0.24628850  0.87469700  1
  O  O39  1  0.87486850  0.24628850  0.12530300  1
  O  O40  1  0.11674350  0.41109850  0.38217300  1
  O  O41  1  0.88325650  0.41109850  0.61782700  1
  O  O42  1  0.62986050  0.09848250  0.87616900  1
  O  O43  1  0.37013950  0.09848250  0.12383100  1
  O  O44  1  0.61908050  0.23676650  0.38342400  1
  O  O45  1  0.38091950  0.23676650  0.61657600  1
  O  O46  1  0.61858500  0.40643800  0.87447200  1
  O  O47  1  0.38141500  0.40643800  0.12552800  1
