# generated using pymatgen
data_Ti2Mn3Cr3O16
_symmetry_space_group_name_H-M   'P 1'
_cell_length_a   10.09455400
_cell_length_b   5.81008800
_cell_length_c   9.02069493
_cell_angle_alpha   90.00000000
_cell_angle_beta   90.05989553
_cell_angle_gamma   90.00000000
_symmetry_Int_Tables_number   1
_chemical_formula_structural   Ti2Mn3Cr3O16
_chemical_formula_sum   'Ti4 Mn6 Cr6 O32'
_cell_volume   529.06569716
_cell_formula_units_Z   2
loop_
 _symmetry_equiv_pos_site_id
 _symmetry_equiv_pos_as_xyz
  1  'x, y, z'
loop_
 _atom_site_type_symbol
 _atom_site_label
 _atom_site_symmetry_multiplicity
 _atom_site_fract_x
 _atom_site_fract_y
 _atom_site_fract_z
 _atom_site_occupancy
  Ti  Ti0  1  0.82817400  0.50000000  0.50496500  1
  Ti  Ti1  1  0.66575200  0.00000000  0.00610500  1
  Ti  Ti2  1  0.32817400  0.00000000  0.50496500  1
  Ti  Ti3  1  0.16575200  0.50000000  0.00610500  1
  Mn  Mn4  1  0.66844100  0.50000000  0.78794000  1
  Mn  Mn5  1  0.58280200  0.24537000  0.28722100  1
  Mn  Mn6  1  0.58280200  0.75463000  0.28722100  1
  Mn  Mn7  1  0.16844100  0.00000000  0.78794000  1
  Mn  Mn8  1  0.08280200  0.74537000  0.28722100  1
  Mn  Mn9  1  0.08280200  0.25463000  0.28722100  1
  Cr  Cr10  1  0.91649900  0.74675400  0.79124100  1
  Cr  Cr11  1  0.91649900  0.25324600  0.79124100  1
  Cr  Cr12  1  0.83183600  0.00000000  0.28961300  1
  Cr  Cr13  1  0.41649900  0.24675400  0.79124100  1
  Cr  Cr14  1  0.41649900  0.75324600  0.79124100  1
  Cr  Cr15  1  0.33183600  0.50000000  0.28961300  1
  O  O16  1  0.91230650  0.74996350  0.39734800  1
  O  O17  1  0.97521400  0.50000000  0.66575200  1
  O  O18  1  0.82950700  0.50000000  0.89860400  1
  O  O19  1  0.50133600  0.50000000  0.68607700  1
  O  O20  1  0.50158600  0.50000000  0.18377500  1
  O  O21  1  0.91230650  0.25003650  0.39734800  1
  O  O22  1  0.75964150  0.71511250  0.66555300  1
  O  O23  1  0.75964150  0.28488750  0.66555300  1
  O  O24  1  0.82962900  0.00000000  0.89649400  1
  O  O25  1  0.66598300  0.50000000  0.39980000  1
  O  O26  1  0.73726150  0.21572750  0.16617800  1
  O  O27  1  0.73726150  0.78427250  0.16617800  1
  O  O28  1  0.66112300  0.00000000  0.39806100  1
  O  O29  1  0.58007550  0.24582650  0.89847800  1
  O  O30  1  0.51937100  0.00000000  0.16443900  1
  O  O31  1  0.58007550  0.75417350  0.89847800  1
  O  O32  1  0.41230650  0.24996350  0.39734800  1
  O  O33  1  0.47521400  0.00000000  0.66575200  1
  O  O34  1  0.32950700  0.00000000  0.89860400  1
  O  O35  1  0.00133600  0.00000000  0.68607700  1
  O  O36  1  0.00158600  0.00000000  0.18377500  1
  O  O37  1  0.41230650  0.75003650  0.39734800  1
  O  O38  1  0.25964150  0.21511250  0.66555300  1
  O  O39  1  0.25964150  0.78488750  0.66555300  1
  O  O40  1  0.32962900  0.50000000  0.89649400  1
  O  O41  1  0.16598300  0.00000000  0.39980000  1
  O  O42  1  0.23726150  0.71572750  0.16617800  1
  O  O43  1  0.23726150  0.28427250  0.16617800  1
  O  O44  1  0.16112300  0.50000000  0.39806100  1
  O  O45  1  0.08007550  0.74582650  0.89847800  1
  O  O46  1  0.01937100  0.50000000  0.16443900  1
  O  O47  1  0.08007550  0.25417350  0.89847800  1
