# generated using pymatgen
data_Li4V2Fe3Ni3O16
_symmetry_space_group_name_H-M   'P 1'
_cell_length_a   10.14947800
_cell_length_b   5.85597400
_cell_length_c   9.49299896
_cell_angle_alpha   90.00000000
_cell_angle_beta   92.48385887
_cell_angle_gamma   90.00000000
_symmetry_Int_Tables_number   1
_chemical_formula_structural   Li4V2Fe3Ni3O16
_chemical_formula_sum   'Li8 V4 Fe6 Ni6 O32'
_cell_volume   563.68704671
_cell_formula_units_Z   2
loop_
 _symmetry_equiv_pos_site_id
 _symmetry_equiv_pos_as_xyz
  1  'x, y, z'
loop_
 _atom_site_type_symbol
 _atom_site_label
 _atom_site_symmetry_multiplicity
 _atom_site_fract_x
 _atom_site_fract_y
 _atom_site_fract_z
 _atom_site_occupancy
  Li  Li0  1  0.67076900  0.00000000  0.10195400  1
  Li  Li1  1  0.99660000  0.00000000  0.00991200  1
  Li  Li2  1  0.50273000  0.50000000  0.50624600  1
  Li  Li3  1  0.83366600  0.50000000  0.59575500  1
  Li  Li4  1  0.17076900  0.50000000  0.10195400  1
  Li  Li5  1  0.49660000  0.50000000  0.00991200  1
  Li  Li6  1  0.00273000  0.00000000  0.50624600  1
  Li  Li7  1  0.33366600  0.00000000  0.59575500  1
  V  V8  1  0.67496900  0.00000000  0.50739900  1
  V  V9  1  0.85007500  0.50000000  0.01030600  1
  V  V10  1  0.17496900  0.50000000  0.50739900  1
  V  V11  1  0.35007500  0.00000000  0.01030600  1
  Fe  Fe12  1  0.58940750  0.75492250  0.78345000  1
  Fe  Fe13  1  0.58940750  0.24507750  0.78345000  1
  Fe  Fe14  1  0.67012300  0.50000000  0.28109000  1
  Fe  Fe15  1  0.08940750  0.25492250  0.78345000  1
  Fe  Fe16  1  0.08940750  0.74507750  0.78345000  1
  Fe  Fe17  1  0.17012300  0.00000000  0.28109000  1
  Ni  Ni18  1  0.82894600  0.00000000  0.78553500  1
  Ni  Ni19  1  0.91530650  0.25879950  0.28709600  1
  Ni  Ni20  1  0.91530650  0.74120050  0.28709600  1
  Ni  Ni21  1  0.32894600  0.50000000  0.78553500  1
  Ni  Ni22  1  0.41530650  0.75879950  0.28709600  1
  Ni  Ni23  1  0.41530650  0.24120050  0.28709600  1
  O  O24  1  0.58027250  0.75850550  0.40471500  1
  O  O25  1  0.51565100  0.00000000  0.65952800  1
  O  O26  1  0.66722900  0.00000000  0.89549800  1
  O  O27  1  0.99859000  0.00000000  0.69650800  1
  O  O28  1  0.98878200  0.00000000  0.20023400  1
  O  O29  1  0.58027250  0.24149450  0.40471500  1
  O  O30  1  0.73322150  0.77613650  0.64325900  1
  O  O31  1  0.73322150  0.22386350  0.64325900  1
  O  O32  1  0.66995900  0.50000000  0.91218700  1
  O  O33  1  0.82019600  0.00000000  0.41518200  1
  O  O34  1  0.76393750  0.27840750  0.15952900  1
  O  O35  1  0.76393750  0.72159250  0.15952900  1
  O  O36  1  0.84081900  0.50000000  0.38961500  1
  O  O37  1  0.91302400  0.26265200  0.91118100  1
  O  O38  1  0.98211600  0.50000000  0.14681100  1
  O  O39  1  0.91302400  0.73734800  0.91118100  1
  O  O40  1  0.08027250  0.25850550  0.40471500  1
  O  O41  1  0.01565100  0.50000000  0.65952800  1
  O  O42  1  0.16722900  0.50000000  0.89549800  1
  O  O43  1  0.49859000  0.50000000  0.69650800  1
  O  O44  1  0.48878200  0.50000000  0.20023400  1
  O  O45  1  0.08027250  0.74149450  0.40471500  1
  O  O46  1  0.23322150  0.27613650  0.64325900  1
  O  O47  1  0.23322150  0.72386350  0.64325900  1
  O  O48  1  0.16995900  0.00000000  0.91218700  1
  O  O49  1  0.32019600  0.50000000  0.41518200  1
  O  O50  1  0.26393750  0.77840750  0.15952900  1
  O  O51  1  0.26393750  0.22159250  0.15952900  1
  O  O52  1  0.34081900  0.00000000  0.38961500  1
  O  O53  1  0.41302400  0.76265200  0.91118100  1
  O  O54  1  0.48211600  0.00000000  0.14681100  1
  O  O55  1  0.41302400  0.23734800  0.91118100  1
