# generated using pymatgen
data_Mn6O11F
_symmetry_space_group_name_H-M   'P 1'
_cell_length_a   8.74430200
_cell_length_b   6.31560000
_cell_length_c   7.08658514
_cell_angle_alpha   90.00000000
_cell_angle_beta   112.45446836
_cell_angle_gamma   90.00000000
_symmetry_Int_Tables_number   1
_chemical_formula_structural   Mn6O11F
_chemical_formula_sum   'Mn12 O22 F2'
_cell_volume   361.68867785
_cell_formula_units_Z   2
loop_
 _symmetry_equiv_pos_site_id
 _symmetry_equiv_pos_as_xyz
  1  'x, y, z'
loop_
 _atom_site_type_symbol
 _atom_site_label
 _atom_site_symmetry_multiplicity
 _atom_site_fract_x
 _atom_site_fract_y
 _atom_site_fract_z
 _atom_site_occupancy
  Mn  Mn0  1  0.16778300  0.50000000  0.16563700  1
  Mn  Mn1  1  0.15554100  0.50000000  0.66763200  1
  Mn  Mn2  1  0.83774800  0.50000000  0.33100700  1
  Mn  Mn3  1  0.83110000  0.50000000  0.83821300  1
  Mn  Mn4  1  0.50620500  0.50000000  0.48858700  1
  Mn  Mn5  1  0.50069600  0.50000000  0.00980600  1
  Mn  Mn6  1  0.66778300  0.00000000  0.16563700  1
  Mn  Mn7  1  0.65554100  0.00000000  0.66763200  1
  Mn  Mn8  1  0.33774800  0.00000000  0.33100700  1
  Mn  Mn9  1  0.33110000  0.00000000  0.83821300  1
  Mn  Mn10  1  0.00620500  0.00000000  0.48858700  1
  Mn  Mn11  1  0.00069600  0.00000000  0.00980600  1
  O  O12  1  0.83435950  0.19395250  0.33584100  1
  O  O13  1  0.16557150  0.19499550  0.66548600  1
  O  O14  1  0.06530100  0.50000000  0.37139400  1
  O  O15  1  0.73162300  0.50000000  0.03894900  1
  O  O16  1  0.60586000  0.50000000  0.29773700  1
  O  O17  1  0.93230900  0.50000000  0.62913900  1
  O  O18  1  0.26724100  0.50000000  0.96165200  1
  O  O19  1  0.00069900  0.30498900  0.99896900  1
  O  O20  1  0.16557150  0.80500450  0.66548600  1
  O  O21  1  0.83435950  0.80604750  0.33584100  1
  O  O22  1  0.00069900  0.69501100  0.99896900  1
  O  O23  1  0.33435950  0.69395250  0.33584100  1
  O  O24  1  0.66557150  0.69499550  0.66548600  1
  O  O25  1  0.56530100  0.00000000  0.37139400  1
  O  O26  1  0.23162300  0.00000000  0.03894900  1
  O  O27  1  0.10586000  0.00000000  0.29773700  1
  O  O28  1  0.43230900  0.00000000  0.62913900  1
  O  O29  1  0.76724100  0.00000000  0.96165200  1
  O  O30  1  0.50069900  0.80498900  0.99896900  1
  O  O31  1  0.66557150  0.30500450  0.66548600  1
  O  O32  1  0.33435950  0.30604750  0.33584100  1
  O  O33  1  0.50069900  0.19501100  0.99896900  1
  F  F34  1  0.39733200  0.50000000  0.69965600  1
  F  F35  1  0.89733200  0.00000000  0.69965600  1
