# generated using pymatgen
data_Mn2OF3
_symmetry_space_group_name_H-M   'P 1'
_cell_length_a   6.39351000
_cell_length_b   13.33023200
_cell_length_c   7.11907700
_cell_angle_alpha   90.00000000
_cell_angle_beta   90.00000000
_cell_angle_gamma   90.00000000
_symmetry_Int_Tables_number   1
_chemical_formula_structural   Mn2OF3
_chemical_formula_sum   'Mn16 O8 F24'
_cell_volume   606.73737326
_cell_formula_units_Z   8
loop_
 _symmetry_equiv_pos_site_id
 _symmetry_equiv_pos_as_xyz
  1  'x, y, z'
loop_
 _atom_site_type_symbol
 _atom_site_label
 _atom_site_symmetry_multiplicity
 _atom_site_fract_x
 _atom_site_fract_y
 _atom_site_fract_z
 _atom_site_occupancy
  Mn  Mn0  1  0.76457100  0.00000000  0.00000000  1
  Mn  Mn1  1  0.23542900  0.00000000  0.00000000  1
  Mn  Mn2  1  0.00000000  0.75750800  0.00000000  1
  Mn  Mn3  1  0.50000000  0.00000000  0.50000000  1
  Mn  Mn4  1  0.50000000  0.74249200  0.00000000  1
  Mn  Mn5  1  0.00000000  0.00000000  0.50000000  1
  Mn  Mn6  1  0.25000000  0.75000000  0.50000000  1
  Mn  Mn7  1  0.75000000  0.75000000  0.50000000  1
  Mn  Mn8  1  0.26457100  0.50000000  0.00000000  1
  Mn  Mn9  1  0.73542900  0.50000000  0.00000000  1
  Mn  Mn10  1  0.50000000  0.25750800  0.00000000  1
  Mn  Mn11  1  0.00000000  0.50000000  0.50000000  1
  Mn  Mn12  1  0.00000000  0.24249200  0.00000000  1
  Mn  Mn13  1  0.50000000  0.50000000  0.50000000  1
  Mn  Mn14  1  0.75000000  0.25000000  0.50000000  1
  Mn  Mn15  1  0.25000000  0.25000000  0.50000000  1
  O  O16  1  0.00000000  0.90740700  0.00000000  1
  O  O17  1  0.50000000  0.59259300  0.00000000  1
  O  O18  1  0.50000000  0.84561200  0.50000000  1
  O  O19  1  0.00000000  0.65438800  0.50000000  1
  O  O20  1  0.50000000  0.40740700  0.00000000  1
  O  O21  1  0.00000000  0.09259300  0.00000000  1
  O  O22  1  0.00000000  0.34561200  0.50000000  1
  O  O23  1  0.50000000  0.15438800  0.50000000  1
  F  F24  1  0.50000000  0.90485300  0.00000000  1
  F  F25  1  0.74371200  0.00000000  0.30539900  1
  F  F26  1  0.25628800  0.00000000  0.30539900  1
  F  F27  1  0.75000000  0.75000000  0.19687200  1
  F  F28  1  0.74371200  0.00000000  0.69460100  1
  F  F29  1  0.25628800  0.00000000  0.69460100  1
  F  F30  1  0.25000000  0.75000000  0.19687200  1
  F  F31  1  0.00000000  0.84719400  0.50000000  1
  F  F32  1  0.00000000  0.59514700  0.00000000  1
  F  F33  1  0.50000000  0.65280600  0.50000000  1
  F  F34  1  0.75000000  0.75000000  0.80312800  1
  F  F35  1  0.25000000  0.75000000  0.80312800  1
  F  F36  1  0.00000000  0.40485300  0.00000000  1
  F  F37  1  0.24371200  0.50000000  0.30539900  1
  F  F38  1  0.75628800  0.50000000  0.30539900  1
  F  F39  1  0.25000000  0.25000000  0.19687200  1
  F  F40  1  0.24371200  0.50000000  0.69460100  1
  F  F41  1  0.75628800  0.50000000  0.69460100  1
  F  F42  1  0.75000000  0.25000000  0.19687200  1
  F  F43  1  0.50000000  0.34719400  0.50000000  1
  F  F44  1  0.50000000  0.09514700  0.00000000  1
  F  F45  1  0.00000000  0.15280600  0.50000000  1
  F  F46  1  0.25000000  0.25000000  0.80312800  1
  F  F47  1  0.75000000  0.25000000  0.80312800  1
