# generated using pymatgen
data_LiLa4CoO8
_symmetry_space_group_name_H-M   'P 1'
_cell_length_a   5.34394512
_cell_length_b   5.34394512
_cell_length_c   25.90907207
_cell_angle_alpha   90.00000000
_cell_angle_beta   90.00000000
_cell_angle_gamma   90.00000000
_symmetry_Int_Tables_number   1
_chemical_formula_structural   LiLa4CoO8
_chemical_formula_sum   'Li4 La16 Co4 O32'
_cell_volume   739.90478739
_cell_formula_units_Z   4
loop_
 _symmetry_equiv_pos_site_id
 _symmetry_equiv_pos_as_xyz
  1  'x, y, z'
loop_
 _atom_site_type_symbol
 _atom_site_label
 _atom_site_symmetry_multiplicity
 _atom_site_fract_x
 _atom_site_fract_y
 _atom_site_fract_z
 _atom_site_occupancy
  Li  Li0  1  0.50000000  0.50000000  0.50000000  1
  Li  Li1  1  0.50000000  0.00000000  0.75000000  1
  Li  Li2  1  0.00000000  0.00000000  0.00000000  1
  Li  Li3  1  0.00000000  0.50000000  0.25000000  1
  La  La4  1  0.50000000  0.50000000  0.81838675  1
  La  La5  1  0.00000000  0.50000000  0.93161325  1
  La  La6  1  0.00000000  0.50000000  0.56838675  1
  La  La7  1  0.00000000  0.00000000  0.68161325  1
  La  La8  1  0.50000000  0.50000000  0.68064475  1
  La  La9  1  0.50000000  0.00000000  0.56935525  1
  La  La10  1  0.50000000  0.00000000  0.93064475  1
  La  La11  1  0.00000000  0.00000000  0.81935525  1
  La  La12  1  0.00000000  0.00000000  0.31838675  1
  La  La13  1  0.50000000  0.00000000  0.43161325  1
  La  La14  1  0.50000000  0.00000000  0.06838675  1
  La  La15  1  0.50000000  0.50000000  0.18161325  1
  La  La16  1  0.00000000  0.00000000  0.18064475  1
  La  La17  1  0.00000000  0.50000000  0.06935525  1
  La  La18  1  0.00000000  0.50000000  0.43064475  1
  La  La19  1  0.50000000  0.50000000  0.31935525  1
  Co  Co20  1  0.00000000  0.00000000  0.50000000  1
  Co  Co21  1  0.00000000  0.50000000  0.75000000  1
  Co  Co22  1  0.50000000  0.50000000  0.00000000  1
  Co  Co23  1  0.50000000  0.00000000  0.25000000  1
  O  O24  1  0.50000000  0.50000000  0.59037725  1
  O  O25  1  0.50000000  0.00000000  0.84037725  1
  O  O26  1  0.50000000  0.00000000  0.65962275  1
  O  O27  1  0.00000000  0.00000000  0.90962275  1
  O  O28  1  0.50000000  0.50000000  0.91004175  1
  O  O29  1  0.00000000  0.50000000  0.83995825  1
  O  O30  1  0.00000000  0.50000000  0.66004175  1
  O  O31  1  0.00000000  0.00000000  0.58995825  1
  O  O32  1  0.24484250  0.74484250  0.75000000  1
  O  O33  1  0.75515750  0.24484250  0.50000000  1
  O  O34  1  0.25515750  0.25515750  0.00000000  1
  O  O35  1  0.75515750  0.74484250  0.75000000  1
  O  O36  1  0.24484250  0.24484250  0.50000000  1
  O  O37  1  0.24484250  0.25515750  0.75000000  1
  O  O38  1  0.24484250  0.75515750  0.50000000  1
  O  O39  1  0.75515750  0.25515750  0.75000000  1
  O  O40  1  0.00000000  0.00000000  0.09037725  1
  O  O41  1  0.00000000  0.50000000  0.34037725  1
  O  O42  1  0.00000000  0.50000000  0.15962275  1
  O  O43  1  0.50000000  0.50000000  0.40962275  1
  O  O44  1  0.00000000  0.00000000  0.41004175  1
  O  O45  1  0.50000000  0.00000000  0.33995825  1
  O  O46  1  0.50000000  0.00000000  0.16004175  1
  O  O47  1  0.50000000  0.50000000  0.08995825  1
  O  O48  1  0.74484250  0.24484250  0.25000000  1
  O  O49  1  0.25515750  0.74484250  0.00000000  1
  O  O50  1  0.75515750  0.75515750  0.50000000  1
  O  O51  1  0.25515750  0.24484250  0.25000000  1
  O  O52  1  0.74484250  0.74484250  0.00000000  1
  O  O53  1  0.74484250  0.75515750  0.25000000  1
  O  O54  1  0.74484250  0.25515750  0.00000000  1
  O  O55  1  0.25515750  0.75515750  0.25000000  1
