# generated using pymatgen
data_KLi(WO3)6
_symmetry_space_group_name_H-M   'P 1'
_cell_length_a   13.02960000
_cell_length_b   7.56658400
_cell_length_c   7.76985718
_cell_angle_alpha   90.00000000
_cell_angle_beta   90.01221890
_cell_angle_gamma   90.00000000
_symmetry_Int_Tables_number   1
_chemical_formula_structural   KLi(WO3)6
_chemical_formula_sum   'K2 Li2 W12 O36'
_cell_volume   766.02680532
_cell_formula_units_Z   2
loop_
 _symmetry_equiv_pos_site_id
 _symmetry_equiv_pos_as_xyz
  1  'x, y, z'
loop_
 _atom_site_type_symbol
 _atom_site_label
 _atom_site_symmetry_multiplicity
 _atom_site_fract_x
 _atom_site_fract_y
 _atom_site_fract_z
 _atom_site_occupancy
  K  K0  1  0.99994700  0.00000000  0.73331500  1
  K  K1  1  0.49994700  0.50000000  0.73331500  1
  Li  Li2  1  0.70374300  0.00000000  0.24920500  1
  Li  Li3  1  0.20374300  0.50000000  0.24920500  1
  W  W4  1  0.24800500  0.24425400  0.50198300  1
  W  W5  1  0.25372950  0.24867250  0.99740000  1
  W  W6  1  0.50065300  0.00000000  0.50044500  1
  W  W7  1  0.50070500  0.00000000  0.99955900  1
  W  W8  1  0.25372950  0.75132750  0.99740000  1
  W  W9  1  0.24800500  0.75574600  0.50198300  1
  W  W10  1  0.74800500  0.74425400  0.50198300  1
  W  W11  1  0.75372950  0.74867250  0.99740000  1
  W  W12  1  0.00065300  0.50000000  0.50044500  1
  W  W13  1  0.00070500  0.50000000  0.99955900  1
  W  W14  1  0.75372950  0.25132750  0.99740000  1
  W  W15  1  0.74800500  0.25574600  0.50198300  1
  O  O16  1  0.25145850  0.24396850  0.24997800  1
  O  O17  1  0.21157000  0.00000000  0.98991200  1
  O  O18  1  0.21127700  0.00000000  0.51010500  1
  O  O19  1  0.39290650  0.18197250  0.50851900  1
  O  O20  1  0.25145850  0.75603150  0.24997800  1
  O  O21  1  0.39500650  0.18004950  0.99124100  1
  O  O22  1  0.39500650  0.81995050  0.99124100  1
  O  O23  1  0.39290650  0.81802750  0.50851900  1
  O  O24  1  0.49714200  0.00000000  0.25020300  1
  O  O25  1  0.50575700  0.00000000  0.74986400  1
  O  O26  1  0.60653550  0.17861550  0.00638900  1
  O  O27  1  0.60786300  0.18116100  0.49393100  1
  O  O28  1  0.60786300  0.81883900  0.49393100  1
  O  O29  1  0.74807950  0.24183150  0.75001100  1
  O  O30  1  0.60653550  0.82138450  0.00638900  1
  O  O31  1  0.78428400  0.00000000  0.01122800  1
  O  O32  1  0.78443600  0.00000000  0.48892800  1
  O  O33  1  0.74807950  0.75816850  0.75001100  1
  O  O34  1  0.75145850  0.74396850  0.24997800  1
  O  O35  1  0.71157000  0.50000000  0.98991200  1
  O  O36  1  0.71127700  0.50000000  0.51010500  1
  O  O37  1  0.89290650  0.68197250  0.50851900  1
  O  O38  1  0.75145850  0.25603150  0.24997800  1
  O  O39  1  0.89500650  0.68004950  0.99124100  1
  O  O40  1  0.89500650  0.31995050  0.99124100  1
  O  O41  1  0.89290650  0.31802750  0.50851900  1
  O  O42  1  0.99714200  0.50000000  0.25020300  1
  O  O43  1  0.00575700  0.50000000  0.74986400  1
  O  O44  1  0.10653550  0.67861550  0.00638900  1
  O  O45  1  0.10786300  0.68116100  0.49393100  1
  O  O46  1  0.10786300  0.31883900  0.49393100  1
  O  O47  1  0.24807950  0.74183150  0.75001100  1
  O  O48  1  0.10653550  0.32138450  0.00638900  1
  O  O49  1  0.28428400  0.50000000  0.01122800  1
  O  O50  1  0.28443600  0.50000000  0.48892800  1
  O  O51  1  0.24807950  0.25816850  0.75001100  1
