# generated using pymatgen
data_CrP2H15N2O11
_symmetry_space_group_name_H-M   'P 1'
_cell_length_a   13.30417400
_cell_length_b   12.24632600
_cell_length_c   7.53413447
_cell_angle_alpha   90.00000000
_cell_angle_beta   105.65266235
_cell_angle_gamma   90.00000000
_symmetry_Int_Tables_number   1
_chemical_formula_structural   CrP2H15N2O11
_chemical_formula_sum   'Cr4 P8 H60 N8 O44'
_cell_volume   1181.99338557
_cell_formula_units_Z   4
loop_
 _symmetry_equiv_pos_site_id
 _symmetry_equiv_pos_as_xyz
  1  'x, y, z'
loop_
 _atom_site_type_symbol
 _atom_site_label
 _atom_site_symmetry_multiplicity
 _atom_site_fract_x
 _atom_site_fract_y
 _atom_site_fract_z
 _atom_site_occupancy
  Cr  Cr0  1  0.27956600  0.50000000  0.71671950  1
  Cr  Cr1  1  0.72043400  0.50000000  0.28328050  1
  Cr  Cr2  1  0.77956600  0.00000000  0.71671950  1
  Cr  Cr3  1  0.22043400  0.00000000  0.28328050  1
  P  P4  1  0.13015600  0.62269800  0.35406350  1
  P  P5  1  0.13015600  0.37730200  0.35406350  1
  P  P6  1  0.86984400  0.37730200  0.64593650  1
  P  P7  1  0.86984400  0.62269800  0.64593650  1
  P  P8  1  0.63015600  0.12269800  0.35406350  1
  P  P9  1  0.63015600  0.87730200  0.35406350  1
  P  P10  1  0.36984400  0.87730200  0.64593650  1
  P  P11  1  0.36984400  0.12269800  0.64593650  1
  H  H12  1  0.00000000  0.67355400  0.50000000  1
  H  H13  1  0.00000000  0.32644600  0.50000000  1
  H  H14  1  0.84088100  0.19817400  0.83083350  1
  H  H15  1  0.84088100  0.80182600  0.83083350  1
  H  H16  1  0.15911900  0.80182600  0.16916650  1
  H  H17  1  0.15911900  0.19817400  0.16916650  1
  H  H18  1  0.37416250  0.62334350  0.01471650  1
  H  H19  1  0.37416250  0.37665650  0.01471650  1
  H  H20  1  0.62583750  0.37665650  0.98528350  1
  H  H21  1  0.62583750  0.62334350  0.98528350  1
  H  H22  1  0.09498300  0.50000000  0.79085250  1
  H  H23  1  0.90501700  0.50000000  0.20914750  1
  H  H24  1  0.17762250  0.56715050  0.95666450  1
  H  H25  1  0.17762250  0.43284950  0.95666450  1
  H  H26  1  0.82237750  0.43284950  0.04333550  1
  H  H27  1  0.82237750  0.56715050  0.04333550  1
  H  H28  1  0.46812700  0.50000000  0.68694050  1
  H  H29  1  0.53187300  0.50000000  0.31305950  1
  H  H30  1  0.39812950  0.56678050  0.50337150  1
  H  H31  1  0.39812950  0.43321950  0.50337150  1
  H  H32  1  0.60187050  0.43321950  0.49662850  1
  H  H33  1  0.60187050  0.56678050  0.49662850  1
  H  H34  1  0.93093150  0.21026650  0.26771750  1
  H  H35  1  0.93093150  0.78973350  0.26771750  1
  H  H36  1  0.06906850  0.78973350  0.73228250  1
  H  H37  1  0.06906850  0.21026650  0.73228250  1
  H  H38  1  0.31558800  0.66196800  0.23962650  1
  H  H39  1  0.31558800  0.33803200  0.23962650  1
  H  H40  1  0.68441200  0.33803200  0.76037350  1
  H  H41  1  0.68441200  0.66196800  0.76037350  1
  H  H42  1  0.50000000  0.17355400  0.50000000  1
  H  H43  1  0.50000000  0.82644600  0.50000000  1
  H  H44  1  0.34088100  0.69817400  0.83083350  1
  H  H45  1  0.34088100  0.30182600  0.83083350  1
  H  H46  1  0.65911900  0.30182600  0.16916650  1
  H  H47  1  0.65911900  0.69817400  0.16916650  1
  H  H48  1  0.87416250  0.12334350  0.01471650  1
  H  H49  1  0.87416250  0.87665650  0.01471650  1
  H  H50  1  0.12583750  0.87665650  0.98528350  1
  H  H51  1  0.12583750  0.12334350  0.98528350  1
  H  H52  1  0.59498300  0.00000000  0.79085250  1
  H  H53  1  0.40501700  0.00000000  0.20914750  1
  H  H54  1  0.67762250  0.06715050  0.95666450  1
  H  H55  1  0.67762250  0.93284950  0.95666450  1
  H  H56  1  0.32237750  0.93284950  0.04333550  1
  H  H57  1  0.32237750  0.06715050  0.04333550  1
  H  H58  1  0.96812700  0.00000000  0.68694050  1
  H  H59  1  0.03187300  0.00000000  0.31305950  1
  H  H60  1  0.89812950  0.06678050  0.50337150  1
  H  H61  1  0.89812950  0.93321950  0.50337150  1
  H  H62  1  0.10187050  0.93321950  0.49662850  1
  H  H63  1  0.10187050  0.06678050  0.49662850  1
  H  H64  1  0.43093150  0.71026650  0.26771750  1
  H  H65  1  0.43093150  0.28973350  0.26771750  1
  H  H66  1  0.56906850  0.28973350  0.73228250  1
  H  H67  1  0.56906850  0.71026650  0.73228250  1
  H  H68  1  0.81558800  0.16196800  0.23962650  1
  H  H69  1  0.81558800  0.83803200  0.23962650  1
  H  H70  1  0.18441200  0.83803200  0.76037350  1
  H  H71  1  0.18441200  0.16196800  0.76037350  1
  N  N72  1  0.17007900  0.50000000  0.87257450  1
  N  N73  1  0.82992100  0.50000000  0.12742550  1
  N  N74  1  0.39896500  0.50000000  0.58555850  1
  N  N75  1  0.60103500  0.50000000  0.41444150  1
  N  N76  1  0.67007900  0.00000000  0.87257450  1
  N  N77  1  0.32992100  0.00000000  0.12742550  1
  N  N78  1  0.89896500  0.00000000  0.58555850  1
  N  N79  1  0.10103500  0.00000000  0.41444150  1
  O  O80  1  0.20267450  0.61373850  0.54945450  1
  O  O81  1  0.20267450  0.38626150  0.54945450  1
  O  O82  1  0.79732550  0.38626150  0.45054550  1
  O  O83  1  0.79732550  0.61373850  0.45054550  1
  O  O84  1  0.02729150  0.68032650  0.35955950  1
  O  O85  1  0.02729150  0.31967350  0.35955950  1
  O  O86  1  0.97270850  0.31967350  0.64044050  1
  O  O87  1  0.97270850  0.68032650  0.64044050  1
  O  O88  1  0.17962650  0.67341250  0.21445250  1
  O  O89  1  0.17962650  0.32658750  0.21445250  1
  O  O90  1  0.82037350  0.32658750  0.78554750  1
  O  O91  1  0.82037350  0.67341250  0.78554750  1
  O  O92  1  0.09348600  0.50000000  0.27921350  1
  O  O93  1  0.90651400  0.50000000  0.72078650  1
  O  O94  1  0.35955200  0.62080200  0.87600450  1
  O  O95  1  0.35955200  0.37919800  0.87600450  1
  O  O96  1  0.64044800  0.37919800  0.12399550  1
  O  O97  1  0.64044800  0.62080200  0.12399550  1
  O  O98  1  0.88773500  0.14399700  0.23354450  1
  O  O99  1  0.88773500  0.85600300  0.23354450  1
  O  O100  1  0.11226500  0.85600300  0.76645550  1
  O  O101  1  0.11226500  0.14399700  0.76645550  1
  O  O102  1  0.70267450  0.11373850  0.54945450  1
  O  O103  1  0.70267450  0.88626150  0.54945450  1
  O  O104  1  0.29732550  0.88626150  0.45054550  1
  O  O105  1  0.29732550  0.11373850  0.45054550  1
  O  O106  1  0.52729150  0.18032650  0.35955950  1
  O  O107  1  0.52729150  0.81967350  0.35955950  1
  O  O108  1  0.47270850  0.81967350  0.64044050  1
  O  O109  1  0.47270850  0.18032650  0.64044050  1
  O  O110  1  0.67962650  0.17341250  0.21445250  1
  O  O111  1  0.67962650  0.82658750  0.21445250  1
  O  O112  1  0.32037350  0.82658750  0.78554750  1
  O  O113  1  0.32037350  0.17341250  0.78554750  1
  O  O114  1  0.59348600  0.00000000  0.27921350  1
  O  O115  1  0.40651400  0.00000000  0.72078650  1
  O  O116  1  0.85955200  0.12080200  0.87600450  1
  O  O117  1  0.85955200  0.87919800  0.87600450  1
  O  O118  1  0.14044800  0.87919800  0.12399550  1
  O  O119  1  0.14044800  0.12080200  0.12399550  1
  O  O120  1  0.38773500  0.64399700  0.23354450  1
  O  O121  1  0.38773500  0.35600300  0.23354450  1
  O  O122  1  0.61226500  0.35600300  0.76645550  1
  O  O123  1  0.61226500  0.64399700  0.76645550  1
