# generated using pymatgen
data_FeOF
_symmetry_space_group_name_H-M   'P 1'
_cell_length_a   9.51030000
_cell_length_b   9.51030000
_cell_length_c   6.13305600
_cell_angle_alpha   90.00000000
_cell_angle_beta   90.00000000
_cell_angle_gamma   90.00000000
_symmetry_Int_Tables_number   1
_chemical_formula_structural   FeOF
_chemical_formula_sum   'Fe16 O16 F16'
_cell_volume   554.70919409
_cell_formula_units_Z   16
loop_
 _symmetry_equiv_pos_site_id
 _symmetry_equiv_pos_as_xyz
  1  'x, y, z'
loop_
 _atom_site_type_symbol
 _atom_site_label
 _atom_site_symmetry_multiplicity
 _atom_site_fract_x
 _atom_site_fract_y
 _atom_site_fract_z
 _atom_site_occupancy
  Fe  Fe0  1  0.51280500  0.23549000  0.64135800  1
  Fe  Fe1  1  0.98719500  0.76451000  0.60864200  1
  Fe  Fe2  1  0.01280500  0.23549000  0.60864200  1
  Fe  Fe3  1  0.48719500  0.76451000  0.64135800  1
  Fe  Fe4  1  0.23549000  0.98719500  0.39135800  1
  Fe  Fe5  1  0.26451000  0.01280500  0.85864200  1
  Fe  Fe6  1  0.76451000  0.01280500  0.39135800  1
  Fe  Fe7  1  0.73549000  0.98719500  0.85864200  1
  Fe  Fe8  1  0.01280500  0.73549000  0.14135800  1
  Fe  Fe9  1  0.48719500  0.26451000  0.10864200  1
  Fe  Fe10  1  0.51280500  0.73549000  0.10864200  1
  Fe  Fe11  1  0.98719500  0.26451000  0.14135800  1
  Fe  Fe12  1  0.73549000  0.48719500  0.89135800  1
  Fe  Fe13  1  0.76451000  0.51280500  0.35864200  1
  Fe  Fe14  1  0.26451000  0.51280500  0.89135800  1
  Fe  Fe15  1  0.23549000  0.48719500  0.35864200  1
  O  O16  1  0.65270450  0.09557850  0.62161650  1
  O  O17  1  0.15270450  0.09557850  0.62838350  1
  O  O18  1  0.40442150  0.15270450  0.87838350  1
  O  O19  1  0.90442150  0.15270450  0.37161650  1
  O  O20  1  0.09557850  0.84729550  0.37161650  1
  O  O21  1  0.59557850  0.84729550  0.87838350  1
  O  O22  1  0.84729550  0.90442150  0.62838350  1
  O  O23  1  0.34729550  0.90442150  0.62161650  1
  O  O24  1  0.15270450  0.59557850  0.12161650  1
  O  O25  1  0.65270450  0.59557850  0.12838350  1
  O  O26  1  0.90442150  0.65270450  0.37838350  1
  O  O27  1  0.40442150  0.65270450  0.87161650  1
  O  O28  1  0.59557850  0.34729550  0.87161650  1
  O  O29  1  0.09557850  0.34729550  0.37838350  1
  O  O30  1  0.34729550  0.40442150  0.12838350  1
  O  O31  1  0.84729550  0.40442150  0.12161650  1
  F  F32  1  0.65377750  0.09755150  0.12860450  1
  F  F33  1  0.65377750  0.59755150  0.62139550  1
  F  F34  1  0.90244850  0.65377750  0.87139550  1
  F  F35  1  0.90244850  0.15377750  0.87860450  1
  F  F36  1  0.59755150  0.34622250  0.37860450  1
  F  F37  1  0.59755150  0.84622250  0.37139550  1
  F  F38  1  0.84622250  0.90244850  0.12139550  1
  F  F39  1  0.84622250  0.40244850  0.62860450  1
  F  F40  1  0.15377750  0.59755150  0.62860450  1
  F  F41  1  0.15377750  0.09755150  0.12139550  1
  F  F42  1  0.40244850  0.15377750  0.37139550  1
  F  F43  1  0.40244850  0.65377750  0.37860450  1
  F  F44  1  0.09755150  0.84622250  0.87860450  1
  F  F45  1  0.09755150  0.34622250  0.87139550  1
  F  F46  1  0.34622250  0.40244850  0.62139550  1
  F  F47  1  0.34622250  0.90244850  0.12860450  1
