# generated using pymatgen
data_Li5FeOF5
_symmetry_space_group_name_H-M   'P 1'
_cell_length_a   5.18613326
_cell_length_b   8.90293051
_cell_length_c   9.83990871
_cell_angle_alpha   90.00000000
_cell_angle_beta   99.32424062
_cell_angle_gamma   90.00000000
_symmetry_Int_Tables_number   1
_chemical_formula_structural   Li5FeOF5
_chemical_formula_sum   'Li20 Fe4 O4 F20'
_cell_volume   448.32324537
_cell_formula_units_Z   4
loop_
 _symmetry_equiv_pos_site_id
 _symmetry_equiv_pos_as_xyz
  1  'x, y, z'
loop_
 _atom_site_type_symbol
 _atom_site_label
 _atom_site_symmetry_multiplicity
 _atom_site_fract_x
 _atom_site_fract_y
 _atom_site_fract_z
 _atom_site_occupancy
  Li  Li0  1  0.50943375  0.43312525  0.73934500  1
  Li  Li1  1  0.00943375  0.06687475  0.23934500  1
  Li  Li2  1  0.00712975  0.24287025  0.74592950  1
  Li  Li3  1  0.50712975  0.25712975  0.24592950  1
  Li  Li4  1  0.47273400  0.08134600  0.74419700  1
  Li  Li5  1  0.97273400  0.41865400  0.24419700  1
  Li  Li6  1  0.27080925  0.58504875  0.50835250  1
  Li  Li7  1  0.27080925  0.41495125  0.00835250  1
  Li  Li8  1  0.24725725  0.92402875  0.50978150  1
  Li  Li9  1  0.24725725  0.07597125  0.00978150  1
  Li  Li10  1  0.00943375  0.93312525  0.73934500  1
  Li  Li11  1  0.50943375  0.56687475  0.23934500  1
  Li  Li12  1  0.50712975  0.74287025  0.74592950  1
  Li  Li13  1  0.00712975  0.75712975  0.24592950  1
  Li  Li14  1  0.97273400  0.58134600  0.74419700  1
  Li  Li15  1  0.47273400  0.91865400  0.24419700  1
  Li  Li16  1  0.77080925  0.08504875  0.50835250  1
  Li  Li17  1  0.77080925  0.91495125  0.00835250  1
  Li  Li18  1  0.74725725  0.42402875  0.50978150  1
  Li  Li19  1  0.74725725  0.57597125  0.00978150  1
  Fe  Fe20  1  0.24121350  0.23954050  0.50640100  1
  Fe  Fe21  1  0.24121350  0.76045950  0.00640100  1
  Fe  Fe22  1  0.74121350  0.73954050  0.50640100  1
  Fe  Fe23  1  0.74121350  0.26045950  0.00640100  1
  O  O24  1  0.12550175  0.08748725  0.62203850  1
  O  O25  1  0.12550175  0.91251275  0.12203850  1
  O  O26  1  0.62550175  0.58748725  0.62203850  1
  O  O27  1  0.62550175  0.41251275  0.12203850  1
  F  F28  1  0.36630900  0.25076300  0.87176950  1
  F  F29  1  0.86630900  0.24923700  0.37176950  1
  F  F30  1  0.12711500  0.42596300  0.62626400  1
  F  F31  1  0.12711500  0.57403700  0.12626400  1
  F  F32  1  0.38166975  0.91992725  0.87017200  1
  F  F33  1  0.38166975  0.08007275  0.37017200  1
  F  F34  1  0.36587150  0.59394650  0.87956650  1
  F  F35  1  0.36587150  0.40605350  0.37956650  1
  F  F36  1  0.63365150  0.25487350  0.62627100  1
  F  F37  1  0.13365150  0.24512650  0.12627100  1
  F  F38  1  0.86630900  0.75076300  0.87176950  1
  F  F39  1  0.36630900  0.74923700  0.37176950  1
  F  F40  1  0.62711500  0.92596300  0.62626400  1
  F  F41  1  0.62711500  0.07403700  0.12626400  1
  F  F42  1  0.88166975  0.41992725  0.87017200  1
  F  F43  1  0.88166975  0.58007275  0.37017200  1
  F  F44  1  0.86587150  0.09394650  0.87956650  1
  F  F45  1  0.86587150  0.90605350  0.37956650  1
  F  F46  1  0.13365150  0.75487350  0.62627100  1
  F  F47  1  0.63365150  0.74512650  0.12627100  1
