# generated using pymatgen
data_Li4Ti3Cr5O16
_symmetry_space_group_name_H-M   'P 1'
_cell_length_a   10.19456800
_cell_length_b   5.92074000
_cell_length_c   9.54893015
_cell_angle_alpha   90.00000000
_cell_angle_beta   90.23910387
_cell_angle_gamma   90.00000000
_symmetry_Int_Tables_number   1
_chemical_formula_structural   Li4Ti3Cr5O16
_chemical_formula_sum   'Li8 Ti6 Cr10 O32'
_cell_volume   576.36254709
_cell_formula_units_Z   2
loop_
 _symmetry_equiv_pos_site_id
 _symmetry_equiv_pos_as_xyz
  1  'x, y, z'
loop_
 _atom_site_type_symbol
 _atom_site_label
 _atom_site_symmetry_multiplicity
 _atom_site_fract_x
 _atom_site_fract_y
 _atom_site_fract_z
 _atom_site_occupancy
  Li  Li0  1  0.33324000  0.00000000  0.10966900  1
  Li  Li1  1  0.00382800  0.00000000  0.00525500  1
  Li  Li2  1  0.99957800  0.00000000  0.50157000  1
  Li  Li3  1  0.66686000  0.00000000  0.60657600  1
  Li  Li4  1  0.83324000  0.50000000  0.10966900  1
  Li  Li5  1  0.50382800  0.50000000  0.00525500  1
  Li  Li6  1  0.49957800  0.50000000  0.50157000  1
  Li  Li7  1  0.16686000  0.50000000  0.60657600  1
  Ti  Ti8  1  0.41544300  0.24717900  0.78637700  1
  Ti  Ti9  1  0.41544300  0.75282100  0.78637700  1
  Ti  Ti10  1  0.82944100  0.00000000  0.28312900  1
  Ti  Ti11  1  0.91544300  0.74717900  0.78637700  1
  Ti  Ti12  1  0.91544300  0.25282100  0.78637700  1
  Ti  Ti13  1  0.32944100  0.50000000  0.28312900  1
  Cr  Cr14  1  0.33264000  0.00000000  0.51404900  1
  Cr  Cr15  1  0.17049600  0.00000000  0.78631900  1
  Cr  Cr16  1  0.66382300  0.00000000  0.01626200  1
  Cr  Cr17  1  0.58448200  0.24581900  0.28974700  1
  Cr  Cr18  1  0.58448200  0.75418100  0.28974700  1
  Cr  Cr19  1  0.83264000  0.50000000  0.51404900  1
  Cr  Cr20  1  0.67049600  0.50000000  0.78631900  1
  Cr  Cr21  1  0.16382300  0.50000000  0.01626200  1
  Cr  Cr22  1  0.08448200  0.74581900  0.28974700  1
  Cr  Cr23  1  0.08448200  0.25418100  0.28974700  1
  O  O24  1  0.41625350  0.25374350  0.39734300  1
  O  O25  1  0.47919200  0.00000000  0.66113800  1
  O  O26  1  0.33844700  0.00000000  0.89689800  1
  O  O27  1  0.99826100  0.00000000  0.68808700  1
  O  O28  1  0.99888600  0.00000000  0.19105300  1
  O  O29  1  0.41625350  0.74625650  0.39734300  1
  O  O30  1  0.26207800  0.22128300  0.65932800  1
  O  O31  1  0.26207800  0.77871700  0.65932800  1
  O  O32  1  0.83490600  0.00000000  0.89527300  1
  O  O33  1  0.16533700  0.00000000  0.39501700  1
  O  O34  1  0.74055400  0.21863600  0.15999000  1
  O  O35  1  0.74055400  0.78136400  0.15999000  1
  O  O36  1  0.67082800  0.00000000  0.39795900  1
  O  O37  1  0.57774000  0.25093200  0.89708900  1
  O  O38  1  0.52126600  0.00000000  0.16420800  1
  O  O39  1  0.57774000  0.74906800  0.89708900  1
  O  O40  1  0.91625350  0.75374350  0.39734300  1
  O  O41  1  0.97919200  0.50000000  0.66113800  1
  O  O42  1  0.83844700  0.50000000  0.89689800  1
  O  O43  1  0.49826100  0.50000000  0.68808700  1
  O  O44  1  0.49888600  0.50000000  0.19105300  1
  O  O45  1  0.91625350  0.24625650  0.39734300  1
  O  O46  1  0.76207800  0.72128300  0.65932800  1
  O  O47  1  0.76207800  0.27871700  0.65932800  1
  O  O48  1  0.33490600  0.50000000  0.89527300  1
  O  O49  1  0.66533700  0.50000000  0.39501700  1
  O  O50  1  0.24055400  0.71863600  0.15999000  1
  O  O51  1  0.24055400  0.28136400  0.15999000  1
  O  O52  1  0.17082800  0.50000000  0.39795900  1
  O  O53  1  0.07774000  0.75093200  0.89708900  1
  O  O54  1  0.02126600  0.50000000  0.16420800  1
  O  O55  1  0.07774000  0.24906800  0.89708900  1
