# generated using pymatgen
data_Yb2P4O13
_symmetry_space_group_name_H-M   'P 1'
_cell_length_a   7.13186800
_cell_length_b   17.86538200
_cell_length_c   8.74610500
_cell_angle_alpha   90.00000000
_cell_angle_beta   90.00000000
_cell_angle_gamma   90.00000000
_symmetry_Int_Tables_number   1
_chemical_formula_structural   Yb2P4O13
_chemical_formula_sum   'Yb8 P16 O52'
_cell_volume   1114.37225343
_cell_formula_units_Z   4
loop_
 _symmetry_equiv_pos_site_id
 _symmetry_equiv_pos_as_xyz
  1  'x, y, z'
loop_
 _atom_site_type_symbol
 _atom_site_label
 _atom_site_symmetry_multiplicity
 _atom_site_fract_x
 _atom_site_fract_y
 _atom_site_fract_z
 _atom_site_occupancy
  Yb  Yb0  1  0.74677300  0.85330600  0.35257400  1
  Yb  Yb1  1  0.25322700  0.85330600  0.14742600  1
  Yb  Yb2  1  0.24677300  0.64669400  0.64742600  1
  Yb  Yb3  1  0.75322700  0.64669400  0.85257400  1
  Yb  Yb4  1  0.24677300  0.35330600  0.35257400  1
  Yb  Yb5  1  0.75322700  0.35330600  0.14742600  1
  Yb  Yb6  1  0.74677300  0.14669400  0.64742600  1
  Yb  Yb7  1  0.25322700  0.14669400  0.85257400  1
  P  P8  1  0.77929200  0.94137200  0.72797200  1
  P  P9  1  0.22070800  0.94137200  0.77202800  1
  P  P10  1  0.25581250  0.84139450  0.50188300  1
  P  P11  1  0.74418750  0.84139450  0.99811700  1
  P  P12  1  0.75581250  0.65860550  0.49811700  1
  P  P13  1  0.24418750  0.65860550  0.00188300  1
  P  P14  1  0.72070800  0.55862800  0.22797200  1
  P  P15  1  0.27929200  0.55862800  0.27202800  1
  P  P16  1  0.27929200  0.44137200  0.72797200  1
  P  P17  1  0.72070800  0.44137200  0.77202800  1
  P  P18  1  0.75581250  0.34139450  0.50188300  1
  P  P19  1  0.24418750  0.34139450  0.99811700  1
  P  P20  1  0.25581250  0.15860550  0.49811700  1
  P  P21  1  0.74418750  0.15860550  0.00188300  1
  P  P22  1  0.22070800  0.05862800  0.22797200  1
  P  P23  1  0.77929200  0.05862800  0.27202800  1
  O  O24  1  0.27828550  0.97844350  0.20568400  1
  O  O25  1  0.72171450  0.97844350  0.29431600  1
  O  O26  1  0.00000000  0.93892700  0.75000000  1
  O  O27  1  0.29591200  0.91465600  0.60860300  1
  O  O28  1  0.70408800  0.91465600  0.89139700  1
  O  O29  1  0.27233050  0.88711950  0.89570900  1
  O  O30  1  0.72766950  0.88711950  0.60429100  1
  O  O31  1  0.07714500  0.85565000  0.40830900  1
  O  O32  1  0.92285500  0.85565000  0.09169100  1
  O  O33  1  0.57944550  0.83813450  0.10952300  1
  O  O34  1  0.42055450  0.83813450  0.39047700  1
  O  O35  1  0.75676500  0.77341600  0.89511500  1
  O  O36  1  0.24323500  0.77341600  0.60488500  1
  O  O37  1  0.74323500  0.72658400  0.39511500  1
  O  O38  1  0.25676500  0.72658400  0.10488500  1
  O  O39  1  0.92055450  0.66186550  0.60952300  1
  O  O40  1  0.07944550  0.66186550  0.89047700  1
  O  O41  1  0.42285500  0.64435000  0.90830900  1
  O  O42  1  0.57714500  0.64435000  0.59169100  1
  O  O43  1  0.22766950  0.61288050  0.39570900  1
  O  O44  1  0.77233050  0.61288050  0.10429100  1
  O  O45  1  0.79591200  0.58534400  0.39139700  1
  O  O46  1  0.20408800  0.58534400  0.10860300  1
  O  O47  1  0.50000000  0.56107300  0.25000000  1
  O  O48  1  0.77828550  0.52155650  0.79431600  1
  O  O49  1  0.22171450  0.52155650  0.70568400  1
  O  O50  1  0.77828550  0.47844350  0.20568400  1
  O  O51  1  0.22171450  0.47844350  0.29431600  1
  O  O52  1  0.50000000  0.43892700  0.75000000  1
  O  O53  1  0.79591200  0.41465600  0.60860300  1
  O  O54  1  0.20408800  0.41465600  0.89139700  1
  O  O55  1  0.77233050  0.38711950  0.89570900  1
  O  O56  1  0.22766950  0.38711950  0.60429100  1
  O  O57  1  0.57714500  0.35565000  0.40830900  1
  O  O58  1  0.42285500  0.35565000  0.09169100  1
  O  O59  1  0.07944550  0.33813450  0.10952300  1
  O  O60  1  0.92055450  0.33813450  0.39047700  1
  O  O61  1  0.25676500  0.27341600  0.89511500  1
  O  O62  1  0.74323500  0.27341600  0.60488500  1
  O  O63  1  0.24323500  0.22658400  0.39511500  1
  O  O64  1  0.75676500  0.22658400  0.10488500  1
  O  O65  1  0.42055450  0.16186550  0.60952300  1
  O  O66  1  0.57944550  0.16186550  0.89047700  1
  O  O67  1  0.92285500  0.14435000  0.90830900  1
  O  O68  1  0.07714500  0.14435000  0.59169100  1
  O  O69  1  0.72766950  0.11288050  0.39570900  1
  O  O70  1  0.27233050  0.11288050  0.10429100  1
  O  O71  1  0.29591200  0.08534400  0.39139700  1
  O  O72  1  0.70408800  0.08534400  0.10860300  1
  O  O73  1  0.00000000  0.06107300  0.25000000  1
  O  O74  1  0.27828550  0.02155650  0.79431600  1
  O  O75  1  0.72171450  0.02155650  0.70568400  1
