# generated using pymatgen
data_Ti3Fe2Co(PO4)6
_symmetry_space_group_name_H-M   'P 1'
_cell_length_a   8.67301023
_cell_length_b   8.67301023
_cell_length_c   20.73569428
_cell_angle_alpha   90.00000000
_cell_angle_beta   90.00000000
_cell_angle_gamma   120.00000000
_symmetry_Int_Tables_number   1
_chemical_formula_structural   Ti3Fe2Co(PO4)6
_chemical_formula_sum   'Ti9 Fe6 Co3 P18 O72'
_cell_volume   1350.79339978
_cell_formula_units_Z   3
loop_
 _symmetry_equiv_pos_site_id
 _symmetry_equiv_pos_as_xyz
  1  'x, y, z'
loop_
 _atom_site_type_symbol
 _atom_site_label
 _atom_site_symmetry_multiplicity
 _atom_site_fract_x
 _atom_site_fract_y
 _atom_site_fract_z
 _atom_site_occupancy
  Ti  Ti0  1  0.33333333  0.66666667  0.31087667  1
  Ti  Ti1  1  0.33333333  0.66666667  0.52455467  1
  Ti  Ti2  1  0.33333333  0.66666667  0.02166767  1
  Ti  Ti3  1  0.00000000  0.00000000  0.64421000  1
  Ti  Ti4  1  0.00000000  0.00000000  0.85788800  1
  Ti  Ti5  1  0.00000000  0.00000000  0.35500100  1
  Ti  Ti6  1  0.66666667  0.33333333  0.97754333  1
  Ti  Ti7  1  0.66666667  0.33333333  0.19122133  1
  Ti  Ti8  1  0.66666667  0.33333333  0.68833433  1
  Fe  Fe9  1  0.33333333  0.66666667  0.67013467  1
  Fe  Fe10  1  0.33333333  0.66666667  0.16772067  1
  Fe  Fe11  1  0.00000000  0.00000000  0.00346800  1
  Fe  Fe12  1  0.00000000  0.00000000  0.50105400  1
  Fe  Fe13  1  0.66666667  0.33333333  0.33680133  1
  Fe  Fe14  1  0.66666667  0.33333333  0.83438733  1
  Co  Co15  1  0.33333333  0.66666667  0.80959267  1
  Co  Co16  1  0.00000000  0.00000000  0.14292600  1
  Co  Co17  1  0.66666667  0.33333333  0.47625933  1
  P  P18  1  0.70680000  0.70638900  0.24818500  1
  P  P19  1  0.29361100  0.00041100  0.24818500  1
  P  P20  1  0.99958900  0.29320000  0.24818500  1
  P  P21  1  0.66593867  0.03909933  0.08339533  1
  P  P22  1  0.37316067  0.33406133  0.08339533  1
  P  P23  1  0.96090067  0.62683933  0.08339533  1
  P  P24  1  0.37346667  0.03972233  0.58151833  1
  P  P25  1  0.96027767  0.33374433  0.58151833  1
  P  P26  1  0.66625567  0.62653333  0.58151833  1
  P  P27  1  0.33260533  0.37243267  0.41672867  1
  P  P28  1  0.03982733  0.66739467  0.41672867  1
  P  P29  1  0.62756733  0.96017267  0.41672867  1
  P  P30  1  0.04013333  0.37305567  0.91485167  1
  P  P31  1  0.62694433  0.66707767  0.91485167  1
  P  P32  1  0.33292233  0.95986667  0.91485167  1
  P  P33  1  0.99927200  0.70576600  0.75006200  1
  P  P34  1  0.70649400  0.00072800  0.75006200  1
  P  P35  1  0.29423400  0.29350600  0.75006200  1
  O  O36  1  0.51915300  0.66186500  0.97645100  1
  O  O37  1  0.33813500  0.85728800  0.97645100  1
  O  O38  1  0.14271200  0.48084700  0.97645100  1
  O  O39  1  0.68406400  0.51622300  0.25811600  1
  O  O40  1  0.79910933  0.79654267  0.18760867  1
  O  O41  1  0.51375333  0.67935867  0.24571267  1
  O  O42  1  0.48377700  0.16784100  0.25811600  1
  O  O43  1  0.32064133  0.83439467  0.24571267  1
  O  O44  1  0.33791233  0.48038967  0.47752367  1
  O  O45  1  0.16560533  0.48624667  0.24571267  1
  O  O46  1  0.83001033  0.02067667  0.07339567  1
  O  O47  1  0.14247733  0.66208767  0.47752367  1
  O  O48  1  0.20345733  0.00256667  0.18760867  1
  O  O49  1  0.83215900  0.31593600  0.25811600  1
  O  O50  1  0.49573767  0.85211433  0.09087033  1
  O  O51  1  0.99743333  0.20089067  0.18760867  1
  O  O52  1  0.35637667  0.50426233  0.09087033  1
  O  O53  1  0.19066633  0.16998967  0.07339567  1
  O  O54  1  0.14788567  0.64362333  0.09087033  1
  O  O55  1  0.51961033  0.85752267  0.47752367  1
  O  O56  1  0.97932333  0.80933367  0.07339567  1
  O  O57  1  0.52809333  0.84505367  0.35722567  1
  O  O58  1  0.31696033  0.47190667  0.35722567  1
  O  O59  1  0.15494633  0.68303967  0.35722567  1
  O  O60  1  0.18581967  0.99519833  0.30978433  1
  O  O61  1  0.00480167  0.19062133  0.30978433  1
  O  O62  1  0.80937867  0.81418033  0.30978433  1
  O  O63  1  0.35073067  0.84955633  0.59144933  1
  O  O64  1  0.46577600  0.12987600  0.52094200  1
  O  O65  1  0.18042000  0.01269200  0.57904600  1
  O  O66  1  0.15044367  0.50117433  0.59144933  1
  O  O67  1  0.98730800  0.16772800  0.57904600  1
  O  O68  1  0.00457900  0.81372300  0.81085700  1
  O  O69  1  0.83227200  0.81958000  0.57904600  1
  O  O70  1  0.49667700  0.35401000  0.40672900  1
  O  O71  1  0.80914400  0.99542100  0.81085700  1
  O  O72  1  0.87012400  0.33590000  0.52094200  1
  O  O73  1  0.49882567  0.64926933  0.59144933  1
  O  O74  1  0.16240433  0.18544767  0.42420367  1
  O  O75  1  0.66410000  0.53422400  0.52094200  1
  O  O76  1  0.02304333  0.83759567  0.42420367  1
  O  O77  1  0.85733300  0.50332300  0.40672900  1
  O  O78  1  0.81455233  0.97695667  0.42420367  1
  O  O79  1  0.18627700  0.19085600  0.81085700  1
  O  O80  1  0.64599000  0.14266700  0.40672900  1
  O  O81  1  0.19476000  0.17838700  0.69055900  1
  O  O82  1  0.98362700  0.80524000  0.69055900  1
  O  O83  1  0.82161300  0.01637300  0.69055900  1
  O  O84  1  0.85248633  0.32853167  0.64311767  1
  O  O85  1  0.67146833  0.52395467  0.64311767  1
  O  O86  1  0.47604533  0.14751367  0.64311767  1
  O  O87  1  0.01739733  0.18288967  0.92478267  1
  O  O88  1  0.13244267  0.46320933  0.85427533  1
  O  O89  1  0.84708667  0.34602533  0.91237933  1
  O  O90  1  0.81711033  0.83450767  0.92478267  1
  O  O91  1  0.65397467  0.50106133  0.91237933  1
  O  O92  1  0.67124567  0.14705633  0.14419033  1
  O  O93  1  0.49893867  0.15291333  0.91237933  1
  O  O94  1  0.16334367  0.68734333  0.74006233  1
  O  O95  1  0.47581067  0.32875433  0.14419033  1
  O  O96  1  0.53679067  0.66923333  0.85427533  1
  O  O97  1  0.16549233  0.98260267  0.92478267  1
  O  O98  1  0.82907100  0.51878100  0.75753700  1
  O  O99  1  0.33076667  0.86755733  0.85427533  1
  O  O100  1  0.68971000  0.17092900  0.75753700  1
  O  O101  1  0.52399967  0.83665633  0.74006233  1
  O  O102  1  0.48121900  0.31029000  0.75753700  1
  O  O103  1  0.85294367  0.52418933  0.14419033  1
  O  O104  1  0.31265667  0.47600033  0.74006233  1
  O  O105  1  0.86142667  0.51172033  0.02389233  1
  O  O106  1  0.65029367  0.13857333  0.02389233  1
  O  O107  1  0.48827967  0.34970633  0.02389233  1
