# generated using pymatgen
data_CoP4(H5O8)2
_symmetry_space_group_name_H-M   'P 1'
_cell_length_a   5.34410235
_cell_length_b   7.22090173
_cell_length_c   8.46157087
_cell_angle_alpha   99.72874700
_cell_angle_beta   98.42994295
_cell_angle_gamma   92.27676590
_symmetry_Int_Tables_number   1
_chemical_formula_structural   CoP4(H5O8)2
_chemical_formula_sum   'Co1 P4 H10 O16'
_cell_volume   317.65524199
_cell_formula_units_Z   1
loop_
 _symmetry_equiv_pos_site_id
 _symmetry_equiv_pos_as_xyz
  1  'x, y, z'
loop_
 _atom_site_type_symbol
 _atom_site_label
 _atom_site_symmetry_multiplicity
 _atom_site_fract_x
 _atom_site_fract_y
 _atom_site_fract_z
 _atom_site_occupancy
  Co  Co0  1  0.50000000  0.50000000  0.50000000  1
  P  P1  1  0.93369300  0.32598050  0.27886400  1
  P  P2  1  0.06630700  0.67401950  0.72113600  1
  P  P3  1  0.54683800  0.81964000  0.25821600  1
  P  P4  1  0.45316200  0.18036000  0.74178400  1
  H  H5  1  0.13172400  0.58292600  0.23803650  1
  H  H6  1  0.86827600  0.41707400  0.76196350  1
  H  H7  1  0.10477100  0.07885150  0.16335550  1
  H  H8  1  0.89522900  0.92114850  0.83664450  1
  H  H9  1  0.72759000  0.63172350  0.09581550  1
  H  H10  1  0.27241000  0.36827650  0.90418450  1
  H  H11  1  0.51931100  0.12740350  0.26728900  1
  H  H12  1  0.48068900  0.87259650  0.73271100  1
  H  H13  1  0.83758400  0.80559500  0.46443650  1
  H  H14  1  0.16241600  0.19440500  0.53556350  1
  O  O15  1  0.96282100  0.50473500  0.19446400  1
  O  O16  1  0.03717900  0.49526500  0.80553600  1
  O  O17  1  0.94781100  0.14667700  0.14551800  1
  O  O18  1  0.05218900  0.85332300  0.85448200  1
  O  O19  1  0.66609400  0.31586550  0.32294500  1
  O  O20  1  0.33390600  0.68413450  0.67705500  1
  O  O21  1  0.15272200  0.33823750  0.41996450  1
  O  O22  1  0.84727800  0.66176250  0.58003550  1
  O  O23  1  0.60630300  0.73178150  0.08478000  1
  O  O24  1  0.39369700  0.26821850  0.91522000  1
  O  O25  1  0.40721000  0.00091400  0.23196000  1
  O  O26  1  0.59279000  0.99908600  0.76804000  1
  O  O27  1  0.80002100  0.88547750  0.37545300  1
  O  O28  1  0.19997900  0.11452250  0.62454700  1
  O  O29  1  0.38626100  0.68115150  0.32519900  1
  O  O30  1  0.61373900  0.31884850  0.67480100  1
