# generated using pymatgen
data_RbCrH4(C2O5)2
_symmetry_space_group_name_H-M   'P 1'
_cell_length_a   6.84455978
_cell_length_b   7.31019900
_cell_length_c   10.31802414
_cell_angle_alpha   90.00000000
_cell_angle_beta   91.73876942
_cell_angle_gamma   90.00000000
_symmetry_Int_Tables_number   1
_chemical_formula_structural   RbCrH4(C2O5)2
_chemical_formula_sum   'Rb2 Cr2 H8 C8 O20'
_cell_volume   516.02559883
_cell_formula_units_Z   2
loop_
 _symmetry_equiv_pos_site_id
 _symmetry_equiv_pos_as_xyz
  1  'x, y, z'
loop_
 _atom_site_type_symbol
 _atom_site_label
 _atom_site_symmetry_multiplicity
 _atom_site_fract_x
 _atom_site_fract_y
 _atom_site_fract_z
 _atom_site_occupancy
  Rb  Rb0  1  0.50000000  0.00000000  0.00000000  1
  Rb  Rb1  1  0.00000000  0.50000000  0.00000000  1
  Cr  Cr2  1  0.00000000  0.00000000  0.50000000  1
  Cr  Cr3  1  0.50000000  0.50000000  0.50000000  1
  H  H4  1  0.65567750  0.11279050  0.39831700  1
  H  H5  1  0.65567750  0.88720950  0.39831700  1
  H  H6  1  0.34432250  0.88720950  0.60168300  1
  H  H7  1  0.34432250  0.11279050  0.60168300  1
  H  H8  1  0.15567750  0.61279050  0.39831700  1
  H  H9  1  0.15567750  0.38720950  0.39831700  1
  H  H10  1  0.84432250  0.38720950  0.60168300  1
  H  H11  1  0.84432250  0.61279050  0.60168300  1
  C  C12  1  0.87208450  0.10659250  0.74724800  1
  C  C13  1  0.87208450  0.89340750  0.74724800  1
  C  C14  1  0.12791550  0.10659250  0.25275200  1
  C  C15  1  0.12791550  0.89340750  0.25275200  1
  C  C16  1  0.37208450  0.60659250  0.74724800  1
  C  C17  1  0.37208450  0.39340750  0.74724800  1
  C  C18  1  0.62791550  0.60659250  0.25275200  1
  C  C19  1  0.62791550  0.39340750  0.25275200  1
  O  O20  1  0.71559925  0.00000000  0.43774950  1
  O  O21  1  0.28440075  0.00000000  0.56225050  1
  O  O22  1  0.68310925  0.30639425  0.15871750  1
  O  O23  1  0.68310925  0.69360575  0.15871750  1
  O  O24  1  0.31689075  0.30639425  0.84128250  1
  O  O25  1  0.31689075  0.69360575  0.84128250  1
  O  O26  1  0.56850100  0.32087750  0.36152900  1
  O  O27  1  0.56850100  0.67912250  0.36152900  1
  O  O28  1  0.43149900  0.32087750  0.63847100  1
  O  O29  1  0.43149900  0.67912250  0.63847100  1
  O  O30  1  0.21559925  0.50000000  0.43774950  1
  O  O31  1  0.78440075  0.50000000  0.56225050  1
  O  O32  1  0.18310925  0.80639425  0.15871750  1
  O  O33  1  0.18310925  0.19360575  0.15871750  1
  O  O34  1  0.81689075  0.80639425  0.84128250  1
  O  O35  1  0.81689075  0.19360575  0.84128250  1
  O  O36  1  0.06850100  0.82087750  0.36152900  1
  O  O37  1  0.06850100  0.17912250  0.36152900  1
  O  O38  1  0.93149900  0.82087750  0.63847100  1
  O  O39  1  0.93149900  0.17912250  0.63847100  1
