# generated using pymatgen
data_LiFeSiO4
_symmetry_space_group_name_H-M   'P 1'
_cell_length_a   4.53948150
_cell_length_b   4.53948150
_cell_length_c   8.59994200
_cell_angle_alpha   90.00000000
_cell_angle_beta   90.00000000
_cell_angle_gamma   90.00000000
_symmetry_Int_Tables_number   1
_chemical_formula_structural   LiFeSiO4
_chemical_formula_sum   'Li2 Fe2 Si2 O8'
_cell_volume   177.21807848
_cell_formula_units_Z   2
loop_
 _symmetry_equiv_pos_site_id
 _symmetry_equiv_pos_as_xyz
  1  'x, y, z'
loop_
 _atom_site_type_symbol
 _atom_site_label
 _atom_site_symmetry_multiplicity
 _atom_site_fract_x
 _atom_site_fract_y
 _atom_site_fract_z
 _atom_site_occupancy
  Li  Li0  1  0.50000000  0.50000000  0.00000000  1
  Li  Li1  1  0.00000000  0.00000000  0.50000000  1
  Fe  Fe2  1  0.50000000  0.00000000  0.25000000  1
  Fe  Fe3  1  0.00000000  0.50000000  0.75000000  1
  Si  Si4  1  0.00000000  0.00000000  0.00000000  1
  Si  Si5  1  0.50000000  0.50000000  0.50000000  1
  O  O6  1  0.31684150  0.73817550  0.39170450  1
  O  O7  1  0.76182450  0.81684150  0.10829550  1
  O  O8  1  0.68315850  0.26182450  0.39170450  1
  O  O9  1  0.23817550  0.18315850  0.10829550  1
  O  O10  1  0.81684150  0.23817550  0.89170450  1
  O  O11  1  0.26182450  0.31684150  0.60829550  1
  O  O12  1  0.18315850  0.76182450  0.89170450  1
  O  O13  1  0.73817550  0.68315850  0.60829550  1
