# generated using pymatgen
data_Li3CrFe3O8
_symmetry_space_group_name_H-M   'P 1'
_cell_length_a   5.95703146
_cell_length_b   5.95703146
_cell_length_c   14.78315158
_cell_angle_alpha   90.00000000
_cell_angle_beta   90.00000000
_cell_angle_gamma   120.00000000
_symmetry_Int_Tables_number   1
_chemical_formula_structural   Li3CrFe3O8
_chemical_formula_sum   'Li9 Cr3 Fe9 O24'
_cell_volume   454.31539059
_cell_formula_units_Z   3
loop_
 _symmetry_equiv_pos_site_id
 _symmetry_equiv_pos_as_xyz
  1  'x, y, z'
loop_
 _atom_site_type_symbol
 _atom_site_label
 _atom_site_symmetry_multiplicity
 _atom_site_fract_x
 _atom_site_fract_y
 _atom_site_fract_z
 _atom_site_occupancy
  Li  Li0  1  0.33333333  0.16666667  0.16666667  1
  Li  Li1  1  0.83333333  0.16666667  0.16666667  1
  Li  Li2  1  0.83333333  0.66666667  0.16666667  1
  Li  Li3  1  0.00000000  0.50000000  0.50000000  1
  Li  Li4  1  0.50000000  0.50000000  0.50000000  1
  Li  Li5  1  0.50000000  0.00000000  0.50000000  1
  Li  Li6  1  0.66666667  0.83333333  0.83333333  1
  Li  Li7  1  0.16666667  0.83333333  0.83333333  1
  Li  Li8  1  0.16666667  0.33333333  0.83333333  1
  Cr  Cr9  1  0.00000000  0.00000000  0.00000000  1
  Cr  Cr10  1  0.66666667  0.33333333  0.33333333  1
  Cr  Cr11  1  0.33333333  0.66666667  0.66666667  1
  Fe  Fe12  1  0.00000000  0.50000000  0.00000000  1
  Fe  Fe13  1  0.50000000  0.50000000  0.00000000  1
  Fe  Fe14  1  0.50000000  0.00000000  0.00000000  1
  Fe  Fe15  1  0.66666667  0.83333333  0.33333333  1
  Fe  Fe16  1  0.16666667  0.83333333  0.33333333  1
  Fe  Fe17  1  0.16666667  0.33333333  0.33333333  1
  Fe  Fe18  1  0.33333333  0.16666667  0.66666667  1
  Fe  Fe19  1  0.83333333  0.16666667  0.66666667  1
  Fe  Fe20  1  0.83333333  0.66666667  0.66666667  1
  O  O21  1  0.00000000  0.00000000  0.25885300  1
  O  O22  1  0.98367333  0.49183667  0.26089067  1
  O  O23  1  0.50816333  0.49183667  0.26089067  1
  O  O24  1  0.66666667  0.33333333  0.07448033  1
  O  O25  1  0.50816333  0.01632667  0.26089067  1
  O  O26  1  0.68299333  0.84149667  0.07244267  1
  O  O27  1  0.15850333  0.84149667  0.07244267  1
  O  O28  1  0.15850333  0.31700667  0.07244267  1
  O  O29  1  0.66666667  0.33333333  0.59218633  1
  O  O30  1  0.65034000  0.82517000  0.59422400  1
  O  O31  1  0.17483000  0.82517000  0.59422400  1
  O  O32  1  0.33333333  0.66666667  0.40781367  1
  O  O33  1  0.17483000  0.34966000  0.59422400  1
  O  O34  1  0.34966000  0.17483000  0.40577600  1
  O  O35  1  0.82517000  0.17483000  0.40577600  1
  O  O36  1  0.82517000  0.65034000  0.40577600  1
  O  O37  1  0.33333333  0.66666667  0.92551967  1
  O  O38  1  0.31700667  0.15850333  0.92755733  1
  O  O39  1  0.84149667  0.15850333  0.92755733  1
  O  O40  1  0.00000000  0.00000000  0.74114700  1
  O  O41  1  0.84149667  0.68299333  0.92755733  1
  O  O42  1  0.01632667  0.50816333  0.73910933  1
  O  O43  1  0.49183667  0.50816333  0.73910933  1
  O  O44  1  0.49183667  0.98367333  0.73910933  1
