# generated using pymatgen
data_TiMn2Ni3(PO4)6
_symmetry_space_group_name_H-M   'P 1'
_cell_length_a   8.66619374
_cell_length_b   8.66619374
_cell_length_c   20.82186966
_cell_angle_alpha   90.00000000
_cell_angle_beta   90.00000000
_cell_angle_gamma   120.00000000
_symmetry_Int_Tables_number   1
_chemical_formula_structural   TiMn2Ni3(PO4)6
_chemical_formula_sum   'Ti3 Mn6 Ni9 P18 O72'
_cell_volume   1354.27587727
_cell_formula_units_Z   3
loop_
 _symmetry_equiv_pos_site_id
 _symmetry_equiv_pos_as_xyz
  1  'x, y, z'
loop_
 _atom_site_type_symbol
 _atom_site_label
 _atom_site_symmetry_multiplicity
 _atom_site_fract_x
 _atom_site_fract_y
 _atom_site_fract_z
 _atom_site_occupancy
  Ti  Ti0  1  0.33333333  0.66666667  0.52108067  1
  Ti  Ti1  1  0.00000000  0.00000000  0.85441400  1
  Ti  Ti2  1  0.66666667  0.33333333  0.18774733  1
  Mn  Mn3  1  0.33333333  0.66666667  0.66705167  1
  Mn  Mn4  1  0.33333333  0.66666667  0.16775967  1
  Mn  Mn5  1  0.00000000  0.00000000  0.00038500  1
  Mn  Mn6  1  0.00000000  0.00000000  0.50109300  1
  Mn  Mn7  1  0.66666667  0.33333333  0.33371833  1
  Mn  Mn8  1  0.66666667  0.33333333  0.83442633  1
  Ni  Ni9  1  0.33333333  0.66666667  0.81002567  1
  Ni  Ni10  1  0.33333333  0.66666667  0.02535867  1
  Ni  Ni11  1  0.33333333  0.66666667  0.31015067  1
  Ni  Ni12  1  0.00000000  0.00000000  0.14335900  1
  Ni  Ni13  1  0.00000000  0.00000000  0.35869200  1
  Ni  Ni14  1  0.00000000  0.00000000  0.64348400  1
  Ni  Ni15  1  0.66666667  0.33333333  0.47669233  1
  Ni  Ni16  1  0.66666667  0.33333333  0.69202533  1
  Ni  Ni17  1  0.66666667  0.33333333  0.97681733  1
  P  P18  1  0.00117833  0.70638267  0.24977567  1
  P  P19  1  0.29361733  0.29479567  0.24977567  1
  P  P20  1  0.70520433  0.99882167  0.24977567  1
  P  P21  1  0.96300067  0.33381133  0.08336733  1
  P  P22  1  0.37081067  0.03699933  0.08336733  1
  P  P23  1  0.66618867  0.62918933  0.08336733  1
  P  P24  1  0.66784500  0.03971600  0.58310900  1
  P  P25  1  0.96028400  0.62812900  0.58310900  1
  P  P26  1  0.37187100  0.33215500  0.58310900  1
  P  P27  1  0.62966733  0.66714467  0.41670067  1
  P  P28  1  0.03747733  0.37033267  0.41670067  1
  P  P29  1  0.33285533  0.96252267  0.41670067  1
  P  P30  1  0.33451167  0.37304933  0.91644233  1
  P  P31  1  0.62695067  0.96146233  0.91644233  1
  P  P32  1  0.03853767  0.66548833  0.91644233  1
  P  P33  1  0.29633400  0.00047800  0.75003400  1
  P  P34  1  0.70414400  0.70366600  0.75003400  1
  P  P35  1  0.99952200  0.29585600  0.75003400  1
  O  O36  1  0.13031067  0.66437733  0.97806033  1
  O  O37  1  0.33562267  0.46593333  0.97806033  1
  O  O38  1  0.98231867  0.16555433  0.07586033  1
  O  O39  1  0.53406667  0.86968933  0.97806033  1
  O  O40  1  0.51413333  0.65450067  0.47590967  1
  O  O41  1  0.14812567  0.49904833  0.09592433  1
  O  O42  1  0.18323567  0.01768133  0.07586033  1
  O  O43  1  0.35092267  0.85187433  0.09592433  1
  O  O44  1  0.99399533  0.79696667  0.18853067  1
  O  O45  1  0.50095167  0.64907733  0.09592433  1
  O  O46  1  0.83429100  0.51137500  0.25553900  1
  O  O47  1  0.20303333  0.19702867  0.18853067  1
  O  O48  1  0.14036733  0.48586667  0.47590967  1
  O  O49  1  0.83444567  0.81676433  0.07586033  1
  O  O50  1  0.16911033  0.68406867  0.24164467  1
  O  O51  1  0.34549933  0.85963267  0.47590967  1
  O  O52  1  0.31593133  0.48504167  0.24164467  1
  O  O53  1  0.48862500  0.32291600  0.25553900  1
  O  O54  1  0.51495833  0.83088967  0.24164467  1
  O  O55  1  0.80297133  0.00600467  0.18853067  1
  O  O56  1  0.13458133  0.45813267  0.35491267  1
  O  O57  1  0.67708400  0.16570900  0.25553900  1
  O  O58  1  0.32355133  0.86541867  0.35491267  1
  O  O59  1  0.54186733  0.67644867  0.35491267  1
  O  O60  1  0.79697733  0.99771067  0.31139367  1
  O  O61  1  0.00228933  0.79926667  0.31139367  1
  O  O62  1  0.64898533  0.49888767  0.40919367  1
  O  O63  1  0.20073333  0.20302267  0.31139367  1
  O  O64  1  0.18080000  0.98783400  0.80924300  1
  O  O65  1  0.81479233  0.83238167  0.42925767  1
  O  O66  1  0.84990233  0.35101467  0.40919367  1
  O  O67  1  0.01758933  0.18520767  0.42925767  1
  O  O68  1  0.66066200  0.13030000  0.52186400  1
  O  O69  1  0.16761833  0.98241067  0.42925767  1
  O  O70  1  0.50095767  0.84470833  0.58887233  1
  O  O71  1  0.86970000  0.53036200  0.52186400  1
  O  O72  1  0.80703400  0.81920000  0.80924300  1
  O  O73  1  0.50111233  0.15009767  0.40919367  1
  O  O74  1  0.83577700  0.01740200  0.57497800  1
  O  O75  1  0.01216600  0.19296600  0.80924300  1
  O  O76  1  0.98259800  0.81837500  0.57497800  1
  O  O77  1  0.15529167  0.65624933  0.58887233  1
  O  O78  1  0.18162500  0.16422300  0.57497800  1
  O  O79  1  0.46963800  0.33933800  0.52186400  1
  O  O80  1  0.80124800  0.79146600  0.68824600  1
  O  O81  1  0.34375067  0.49904233  0.58887233  1
  O  O82  1  0.99021800  0.19875200  0.68824600  1
  O  O83  1  0.20853400  0.00978200  0.68824600  1
  O  O84  1  0.46364400  0.33104400  0.64472700  1
  O  O85  1  0.66895600  0.13260000  0.64472700  1
  O  O86  1  0.31565200  0.83222100  0.74252700  1
  O  O87  1  0.86740000  0.53635600  0.64472700  1
  O  O88  1  0.84746667  0.32116733  0.14257633  1
  O  O89  1  0.48145900  0.16571500  0.76259100  1
  O  O90  1  0.51656900  0.68434800  0.74252700  1
  O  O91  1  0.68425600  0.51854100  0.76259100  1
  O  O92  1  0.32732867  0.46363333  0.85519733  1
  O  O93  1  0.83428500  0.31574400  0.76259100  1
  O  O94  1  0.16762433  0.17804167  0.92220567  1
  O  O95  1  0.53636667  0.86369533  0.85519733  1
  O  O96  1  0.47370067  0.15253333  0.14257633  1
  O  O97  1  0.16777900  0.48343100  0.74252700  1
  O  O98  1  0.50244367  0.35073533  0.90831133  1
  O  O99  1  0.67883267  0.52629933  0.14257633  1
  O  O100  1  0.64926467  0.15170833  0.90831133  1
  O  O101  1  0.82195833  0.98958267  0.92220567  1
  O  O102  1  0.84829167  0.49755633  0.90831133  1
  O  O103  1  0.13630467  0.67267133  0.85519733  1
  O  O104  1  0.46791467  0.12479933  0.02157933  1
  O  O105  1  0.01041733  0.83237567  0.92220567  1
  O  O106  1  0.65688467  0.53208533  0.02157933  1
  O  O107  1  0.87520067  0.34311533  0.02157933  1
