# generated using pymatgen
data_Fe4O7F
_symmetry_space_group_name_H-M   'P 1'
_cell_length_a   6.03163000
_cell_length_b   6.43526400
_cell_length_c   6.64265800
_cell_angle_alpha   90.00000000
_cell_angle_beta   90.00000000
_cell_angle_gamma   90.00000000
_symmetry_Int_Tables_number   1
_chemical_formula_structural   Fe4O7F
_chemical_formula_sum   'Fe8 O14 F2'
_cell_volume   257.83564312
_cell_formula_units_Z   2
loop_
 _symmetry_equiv_pos_site_id
 _symmetry_equiv_pos_as_xyz
  1  'x, y, z'
loop_
 _atom_site_type_symbol
 _atom_site_label
 _atom_site_symmetry_multiplicity
 _atom_site_fract_x
 _atom_site_fract_y
 _atom_site_fract_z
 _atom_site_occupancy
  Fe  Fe0  1  0.00000000  0.00000000  0.73000400  1
  Fe  Fe1  1  0.00000000  0.50000000  0.25611700  1
  Fe  Fe2  1  0.25779300  0.00000000  0.25842700  1
  Fe  Fe3  1  0.24220700  0.50000000  0.75842700  1
  Fe  Fe4  1  0.50000000  0.50000000  0.23000400  1
  Fe  Fe5  1  0.50000000  0.00000000  0.75611700  1
  Fe  Fe6  1  0.75779300  0.50000000  0.75842700  1
  Fe  Fe7  1  0.74220700  0.00000000  0.25842700  1
  O  O8  1  0.50000000  0.00000000  0.45212600  1
  O  O9  1  0.00000000  0.00000000  0.43246500  1
  O  O10  1  0.24708400  0.69284800  0.25023100  1
  O  O11  1  0.75291600  0.69284800  0.25023100  1
  O  O12  1  0.24708400  0.30715200  0.25023100  1
  O  O13  1  0.75291600  0.30715200  0.25023100  1
  O  O14  1  0.50000000  0.00000000  0.06484500  1
  O  O15  1  0.00000000  0.50000000  0.95212600  1
  O  O16  1  0.50000000  0.50000000  0.93246500  1
  O  O17  1  0.74708400  0.19284800  0.75023100  1
  O  O18  1  0.25291600  0.19284800  0.75023100  1
  O  O19  1  0.74708400  0.80715200  0.75023100  1
  O  O20  1  0.25291600  0.80715200  0.75023100  1
  O  O21  1  0.00000000  0.50000000  0.56484500  1
  F  F22  1  0.00000000  0.00000000  0.04666400  1
  F  F23  1  0.50000000  0.50000000  0.54666400  1
