# generated using pymatgen
data_Li5VO4F
_symmetry_space_group_name_H-M   'P 1'
_cell_length_a   5.79260400
_cell_length_b   9.00969800
_cell_length_c   8.95309080
_cell_angle_alpha   90.00000000
_cell_angle_beta   101.92968851
_cell_angle_gamma   90.00000000
_symmetry_Int_Tables_number   1
_chemical_formula_structural   Li5VO4F
_chemical_formula_sum   'Li20 V4 O16 F4'
_cell_volume   457.16649831
_cell_formula_units_Z   4
loop_
 _symmetry_equiv_pos_site_id
 _symmetry_equiv_pos_as_xyz
  1  'x, y, z'
loop_
 _atom_site_type_symbol
 _atom_site_label
 _atom_site_symmetry_multiplicity
 _atom_site_fract_x
 _atom_site_fract_y
 _atom_site_fract_z
 _atom_site_occupancy
  Li  Li0  1  0.62833100  0.66247300  0.56189400  1
  Li  Li1  1  0.32578350  0.11788350  0.94530800  1
  Li  Li2  1  0.49211350  0.83075150  0.74724900  1
  Li  Li3  1  0.62833100  0.33752700  0.06189400  1
  Li  Li4  1  0.32578350  0.88211650  0.44530800  1
  Li  Li5  1  0.67991800  0.11796900  0.55668400  1
  Li  Li6  1  0.37469050  0.65636950  0.93396200  1
  Li  Li7  1  0.49211350  0.16924850  0.24724900  1
  Li  Li8  1  0.67991800  0.88203100  0.05668400  1
  Li  Li9  1  0.37469050  0.34363050  0.43396200  1
  Li  Li10  1  0.12833100  0.16247300  0.56189400  1
  Li  Li11  1  0.82578350  0.61788350  0.94530800  1
  Li  Li12  1  0.99211350  0.33075150  0.74724900  1
  Li  Li13  1  0.12833100  0.83752700  0.06189400  1
  Li  Li14  1  0.82578350  0.38211650  0.44530800  1
  Li  Li15  1  0.17991800  0.61796900  0.55668400  1
  Li  Li16  1  0.87469050  0.15636950  0.93396200  1
  Li  Li17  1  0.99211350  0.66924850  0.24724900  1
  Li  Li18  1  0.17991800  0.38203100  0.05668400  1
  Li  Li19  1  0.87469050  0.84363050  0.43396200  1
  V  V20  1  0.45642650  0.40771650  0.72989800  1
  V  V21  1  0.45642650  0.59228350  0.22989800  1
  V  V22  1  0.95642650  0.90771650  0.72989800  1
  V  V23  1  0.95642650  0.09228350  0.22989800  1
  O  O24  1  0.35416650  0.33980950  0.89343300  1
  O  O25  1  0.67303850  0.88887950  0.58339400  1
  O  O26  1  0.35416650  0.66019050  0.39343300  1
  O  O27  1  0.67303850  0.11112050  0.08339400  1
  O  O28  1  0.51128100  0.61002000  0.75371200  1
  O  O29  1  0.51128100  0.38998000  0.25371200  1
  O  O30  1  0.65209300  0.33681000  0.61321800  1
  O  O31  1  0.65209300  0.66319000  0.11321800  1
  O  O32  1  0.85416650  0.83980950  0.89343300  1
  O  O33  1  0.17303850  0.38887950  0.58339400  1
  O  O34  1  0.85416650  0.16019050  0.39343300  1
  O  O35  1  0.17303850  0.61112050  0.08339400  1
  O  O36  1  0.01128100  0.11002000  0.75371200  1
  O  O37  1  0.01128100  0.88998000  0.25371200  1
  O  O38  1  0.15209300  0.83681000  0.61321800  1
  O  O39  1  0.15209300  0.16319000  0.11321800  1
  F  F40  1  0.35215700  0.88365000  0.93124800  1
  F  F41  1  0.35215700  0.11635000  0.43124800  1
  F  F42  1  0.85215700  0.38365000  0.93124800  1
  F  F43  1  0.85215700  0.61635000  0.43124800  1
