# generated using pymatgen
data_KSr3La8Mn12O36
_symmetry_space_group_name_H-M   'P 1'
_cell_length_a   5.52132200
_cell_length_b   16.67674200
_cell_length_c   7.83233625
_cell_angle_alpha   90.00000000
_cell_angle_beta   90.58140696
_cell_angle_gamma   90.00000000
_symmetry_Int_Tables_number   1
_chemical_formula_structural   KSr3La8Mn12O36
_chemical_formula_sum   'K1 Sr3 La8 Mn12 O36'
_cell_volume   721.14608344
_cell_formula_units_Z   1
loop_
 _symmetry_equiv_pos_site_id
 _symmetry_equiv_pos_as_xyz
  1  'x, y, z'
loop_
 _atom_site_type_symbol
 _atom_site_label
 _atom_site_symmetry_multiplicity
 _atom_site_fract_x
 _atom_site_fract_y
 _atom_site_fract_z
 _atom_site_occupancy
  K  K0  1  0.00000000  0.83336700  0.50000000  1
  Sr  Sr1  1  0.00000000  0.16727400  0.00000000  1
  Sr  Sr2  1  0.50000000  0.33243400  0.50000000  1
  Sr  Sr3  1  0.00000000  0.49949100  0.00000000  1
  La  La4  1  0.00000000  0.16623400  0.50000000  1
  La  La5  1  0.50000000  0.66792400  0.50000000  1
  La  La6  1  0.50000000  0.33341000  0.00000000  1
  La  La7  1  0.00000000  0.83423300  0.00000000  1
  La  La8  1  0.00000000  0.49805900  0.50000000  1
  La  La9  1  0.50000000  0.99857600  0.50000000  1
  La  La10  1  0.50000000  0.66796300  0.00000000  1
  La  La11  1  0.50000000  0.00092800  0.00000000  1
  Mn  Mn12  1  0.99950100  0.99947500  0.25057000  1
  Mn  Mn13  1  0.49936000  0.49983700  0.75071200  1
  Mn  Mn14  1  0.49962100  0.16733100  0.24947900  1
  Mn  Mn15  1  0.50037900  0.16733100  0.75052100  1
  Mn  Mn16  1  0.00011200  0.33330000  0.74992200  1
  Mn  Mn17  1  0.99988800  0.33330000  0.25007800  1
  Mn  Mn18  1  0.50064000  0.49983700  0.24928800  1
  Mn  Mn19  1  0.99955000  0.66707200  0.74938200  1
  Mn  Mn20  1  0.00045000  0.66707200  0.25061800  1
  Mn  Mn21  1  0.50029500  0.83303700  0.25305700  1
  Mn  Mn22  1  0.49970500  0.83303700  0.74694300  1
  Mn  Mn23  1  0.00049900  0.99947500  0.74943000  1
  O  O24  1  0.77076000  0.09004500  0.72191200  1
  O  O25  1  0.00000000  0.01265500  0.00000000  1
  O  O26  1  0.22924000  0.09004500  0.27808800  1
  O  O27  1  0.27536000  0.25797500  0.22434800  1
  O  O28  1  0.27694400  0.07460000  0.72498500  1
  O  O29  1  0.50000000  0.17784500  0.50000000  1
  O  O30  1  0.50000000  0.14986400  0.00000000  1
  O  O31  1  0.72464000  0.25797500  0.77565200  1
  O  O32  1  0.72305600  0.07460000  0.27501500  1
  O  O33  1  0.77391400  0.42536500  0.72386300  1
  O  O34  1  0.76983400  0.24279000  0.23119400  1
  O  O35  1  0.00000000  0.34616700  0.00000000  1
  O  O36  1  0.00000000  0.31672200  0.50000000  1
  O  O37  1  0.22608600  0.42536500  0.27613700  1
  O  O38  1  0.23016600  0.24279000  0.76880600  1
  O  O39  1  0.27763300  0.59237700  0.23065700  1
  O  O40  1  0.26980600  0.41062600  0.72977200  1
  O  O41  1  0.50000000  0.51791700  0.50000000  1
  O  O42  1  0.50000000  0.48331400  0.00000000  1
  O  O43  1  0.72236700  0.59237700  0.76934300  1
  O  O44  1  0.73019400  0.41062600  0.27022800  1
  O  O45  1  0.76095700  0.75353100  0.74212000  1
  O  O46  1  0.76861700  0.57702500  0.23289700  1
  O  O47  1  0.00000000  0.68310400  0.00000000  1
  O  O48  1  0.00000000  0.64803600  0.50000000  1
  O  O49  1  0.23904300  0.75353100  0.25788000  1
  O  O50  1  0.23138300  0.57702500  0.76710300  1
  O  O51  1  0.27680200  0.92604800  0.22199000  1
  O  O52  1  0.28132100  0.73867700  0.73629400  1
  O  O53  1  0.50000000  0.85013100  0.50000000  1
  O  O54  1  0.50000000  0.81816100  0.00000000  1
  O  O55  1  0.72319800  0.92604800  0.77801000  1
  O  O56  1  0.71867900  0.73867700  0.26370600  1
  O  O57  1  0.76495000  0.91220000  0.21356200  1
  O  O58  1  0.00000000  0.99357300  0.50000000  1
  O  O59  1  0.23505000  0.91220000  0.78643800  1
