# generated using pymatgen
data_Li4Co7O3F13
_symmetry_space_group_name_H-M   'P 1'
_cell_length_a   6.06517203
_cell_length_b   6.09317773
_cell_length_c   10.53983591
_cell_angle_alpha   105.48486193
_cell_angle_beta   91.48752901
_cell_angle_gamma   118.98928422
_symmetry_Int_Tables_number   1
_chemical_formula_structural   Li4Co7O3F13
_chemical_formula_sum   'Li4 Co7 O3 F13'
_cell_volume   322.71863188
_cell_formula_units_Z   1
loop_
 _symmetry_equiv_pos_site_id
 _symmetry_equiv_pos_as_xyz
  1  'x, y, z'
loop_
 _atom_site_type_symbol
 _atom_site_label
 _atom_site_symmetry_multiplicity
 _atom_site_fract_x
 _atom_site_fract_y
 _atom_site_fract_z
 _atom_site_occupancy
  Li  Li0  1  0.90150130  0.18340298  0.93883186  1
  Li  Li1  1  0.13046234  0.35079142  0.55900014  1
  Li  Li2  1  0.87326156  0.66514179  0.44050373  1
  Li  Li3  1  0.11626094  0.82111088  0.05758294  1
  Co  Co4  1  0.47809030  0.74086705  0.75015591  1
  Co  Co5  1  0.46327326  0.22789458  0.77115421  1
  Co  Co6  1  0.48067648  0.99238446  0.50043440  1
  Co  Co7  1  0.49655868  0.48777555  0.00129360  1
  Co  Co8  1  0.02338714  0.75029878  0.74701171  1
  Co  Co9  1  0.99495231  0.24179856  0.25148236  1
  Co  Co10  1  0.49242999  0.74776923  0.24914046  1
  O  O11  1  0.30570048  0.39653181  0.86702797  1
  O  O12  1  0.27392073  0.89566171  0.85834269  1
  O  O13  1  0.26859974  0.66556826  0.62621676  1
  F  F14  1  0.75770300  0.85501428  0.86430424  1
  F  F15  1  0.74920149  0.37601900  0.87307767  1
  F  F16  1  0.74247607  0.87278714  0.37097067  1
  F  F17  1  0.72621293  0.13711024  0.63393652  1
  F  F18  1  0.24044114  0.39169446  0.36352399  1
  F  F19  1  0.75419088  0.33655528  0.38398729  1
  F  F20  1  0.74575325  0.61242693  0.63994145  1
  F  F21  1  0.25931755  0.85616879  0.37536709  1
  F  F22  1  0.26555483  0.14611173  0.62768598  1
  F  F23  1  0.24315827  0.61043679  0.12720441  1
  F  F24  1  0.23472788  0.14224603  0.12257092  1
  F  F25  1  0.75586087  0.10377272  0.13373323  1
  F  F26  1  0.72632354  0.64265850  0.11551984  1
