# generated using pymatgen
data_MnNi(PO4)2
_symmetry_space_group_name_H-M   'P 1'
_cell_length_a   8.63705223
_cell_length_b   8.63705223
_cell_length_c   20.87059802
_cell_angle_alpha   90.00000000
_cell_angle_beta   90.00000000
_cell_angle_gamma   120.00000000
_symmetry_Int_Tables_number   1
_chemical_formula_structural   MnNi(PO4)2
_chemical_formula_sum   'Mn9 Ni9 P18 O72'
_cell_volume   1348.33130270
_cell_formula_units_Z   9
loop_
 _symmetry_equiv_pos_site_id
 _symmetry_equiv_pos_as_xyz
  1  'x, y, z'
loop_
 _atom_site_type_symbol
 _atom_site_label
 _atom_site_symmetry_multiplicity
 _atom_site_fract_x
 _atom_site_fract_y
 _atom_site_fract_z
 _atom_site_occupancy
  Mn  Mn0  1  0.33333333  0.66666667  0.66866067  1
  Mn  Mn1  1  0.33333333  0.66666667  0.52415667  1
  Mn  Mn2  1  0.33333333  0.66666667  0.16655867  1
  Mn  Mn3  1  0.00000000  0.00000000  0.00199400  1
  Mn  Mn4  1  0.00000000  0.00000000  0.85749000  1
  Mn  Mn5  1  0.00000000  0.00000000  0.49989200  1
  Mn  Mn6  1  0.66666667  0.33333333  0.33532733  1
  Mn  Mn7  1  0.66666667  0.33333333  0.19082333  1
  Mn  Mn8  1  0.66666667  0.33333333  0.83322533  1
  Ni  Ni9  1  0.33333333  0.66666667  0.02414467  1
  Ni  Ni10  1  0.33333333  0.66666667  0.80965367  1
  Ni  Ni11  1  0.33333333  0.66666667  0.30907567  1
  Ni  Ni12  1  0.00000000  0.00000000  0.35747800  1
  Ni  Ni13  1  0.00000000  0.00000000  0.14298700  1
  Ni  Ni14  1  0.00000000  0.00000000  0.64240900  1
  Ni  Ni15  1  0.66666667  0.33333333  0.69081133  1
  Ni  Ni16  1  0.66666667  0.33333333  0.47632033  1
  Ni  Ni17  1  0.66666667  0.33333333  0.97574233  1
  P  P18  1  0.66529467  0.62366933  0.08449033  1
  P  P19  1  0.95837467  0.33470533  0.08449033  1
  P  P20  1  0.37633067  0.04162533  0.08449033  1
  P  P21  1  0.29276133  0.29335567  0.24861667  1
  P  P22  1  0.70664433  0.99940567  0.24861667  1
  P  P23  1  0.00059433  0.70723867  0.24861667  1
  P  P24  1  0.33196133  0.95700267  0.41782367  1
  P  P25  1  0.62504133  0.66803867  0.41782367  1
  P  P26  1  0.04299733  0.37495867  0.41782367  1
  P  P27  1  0.95942800  0.62668900  0.58195000  1
  P  P28  1  0.37331100  0.33273900  0.58195000  1
  P  P29  1  0.66726100  0.04057200  0.58195000  1
  P  P30  1  0.99862800  0.29033600  0.75115700  1
  P  P31  1  0.29170800  0.00137200  0.75115700  1
  P  P32  1  0.70966400  0.70829200  0.75115700  1
  P  P33  1  0.62609467  0.96002233  0.91528333  1
  P  P34  1  0.03997767  0.66607233  0.91528333  1
  P  P35  1  0.33392767  0.37390533  0.91528333  1
  O  O36  1  0.53559000  0.67043800  0.35515700  1
  O  O37  1  0.13484800  0.46441000  0.35515700  1
  O  O38  1  0.32956200  0.86515200  0.35515700  1
  O  O39  1  0.83587600  0.81267800  0.07716600  1
  O  O40  1  0.66666500  0.52425200  0.14583000  1
  O  O41  1  0.49853400  0.64699500  0.09374300  1
  O  O42  1  0.97680200  0.16412400  0.07716600  1
  O  O43  1  0.14846100  0.50146600  0.09374300  1
  O  O44  1  0.19919633  0.20173667  0.18688767  1
  O  O45  1  0.35300500  0.85153900  0.09374300  1
  O  O46  1  0.48733767  0.31563133  0.25523133  1
  O  O47  1  0.79826333  0.99745967  0.18688767  1
  O  O48  1  0.85758700  0.33333500  0.14583000  1
  O  O49  1  0.18732200  0.02319800  0.07716600  1
  O  O50  1  0.32013700  0.48665000  0.24102500  1
  O  O51  1  0.47574800  0.14241300  0.14583000  1
  O  O52  1  0.51335000  0.83348700  0.24102500  1
  O  O53  1  0.68436867  0.17170633  0.25523133  1
  O  O54  1  0.16651300  0.67986300  0.24102500  1
  O  O55  1  0.00254033  0.80080367  0.18688767  1
  O  O56  1  0.82829367  0.51266233  0.25523133  1
  O  O57  1  0.33191400  0.46270200  0.97777100  1
  O  O58  1  0.53729800  0.86921200  0.97777100  1
  O  O59  1  0.13078800  0.66808600  0.97777100  1
  O  O60  1  0.20225667  0.00377133  0.68849033  1
  O  O61  1  0.80151467  0.79774333  0.68849033  1
  O  O62  1  0.99622867  0.19848533  0.68849033  1
  O  O63  1  0.50254267  0.14601133  0.41049933  1
  O  O64  1  0.33333167  0.85758533  0.47916333  1
  O  O65  1  0.16520067  0.98032833  0.42707633  1
  O  O66  1  0.64346867  0.49745733  0.41049933  1
  O  O67  1  0.81512767  0.83479933  0.42707633  1
  O  O68  1  0.86586300  0.53507000  0.52022100  1
  O  O69  1  0.01967167  0.18487233  0.42707633  1
  O  O70  1  0.15400433  0.64896467  0.58856467  1
  O  O71  1  0.46493000  0.33079300  0.52022100  1
  O  O72  1  0.52425367  0.66666833  0.47916333  1
  O  O73  1  0.85398867  0.35653133  0.41049933  1
  O  O74  1  0.98680367  0.81998333  0.57435833  1
  O  O75  1  0.14241467  0.47574633  0.47916333  1
  O  O76  1  0.18001667  0.16682033  0.57435833  1
  O  O77  1  0.35103533  0.50503967  0.58856467  1
  O  O78  1  0.83317967  0.01319633  0.57435833  1
  O  O79  1  0.66920700  0.13413700  0.52022100  1
  O  O80  1  0.49496033  0.84599567  0.58856467  1
  O  O81  1  0.99858067  0.79603533  0.31110433  1
  O  O82  1  0.20396467  0.20254533  0.31110433  1
  O  O83  1  0.79745467  0.00141933  0.31110433  1
  O  O84  1  0.86892333  0.33710467  0.02182367  1
  O  O85  1  0.46818133  0.13107667  0.02182367  1
  O  O86  1  0.66289533  0.53181867  0.02182367  1
  O  O87  1  0.16920933  0.47934467  0.74383267  1
  O  O88  1  0.99999833  0.19091867  0.81249667  1
  O  O89  1  0.83186733  0.31366167  0.76040967  1
  O  O90  1  0.31013533  0.83079067  0.74383267  1
  O  O91  1  0.48179433  0.16813267  0.76040967  1
  O  O92  1  0.53252967  0.86840333  0.85355433  1
  O  O93  1  0.68633833  0.51820567  0.76040967  1
  O  O94  1  0.82067100  0.98229800  0.92189800  1
  O  O95  1  0.13159667  0.66412633  0.85355433  1
  O  O96  1  0.19092033  0.00000167  0.81249667  1
  O  O97  1  0.52065533  0.68986467  0.74383267  1
  O  O98  1  0.65347033  0.15331667  0.90769167  1
  O  O99  1  0.80908133  0.80907967  0.81249667  1
  O  O100  1  0.84668333  0.50015367  0.90769167  1
  O  O101  1  0.01770200  0.83837300  0.92189800  1
  O  O102  1  0.49984633  0.34652967  0.90769167  1
  O  O103  1  0.33587367  0.46747033  0.85355433  1
  O  O104  1  0.16162700  0.17932900  0.92189800  1
  O  O105  1  0.66524733  0.12936867  0.64443767  1
  O  O106  1  0.87063133  0.53587867  0.64443767  1
  O  O107  1  0.46412133  0.33475267  0.64443767  1
