# generated using pymatgen
data_Li7Ti16O32
_symmetry_space_group_name_H-M   'P 1'
_cell_length_a   19.50562200
_cell_length_b   11.84483800
_cell_length_c   5.08587621
_cell_angle_alpha   90.00000000
_cell_angle_beta   90.08198027
_cell_angle_gamma   90.00000000
_symmetry_Int_Tables_number   1
_chemical_formula_structural   Li7Ti16O32
_chemical_formula_sum   'Li14 Ti32 O64'
_cell_volume   1175.04437933
_cell_formula_units_Z   2
loop_
 _symmetry_equiv_pos_site_id
 _symmetry_equiv_pos_as_xyz
  1  'x, y, z'
loop_
 _atom_site_type_symbol
 _atom_site_label
 _atom_site_symmetry_multiplicity
 _atom_site_fract_x
 _atom_site_fract_y
 _atom_site_fract_z
 _atom_site_occupancy
  Li  Li0  1  0.67213900  0.00000000  0.57092800  1
  Li  Li1  1  0.20501300  0.86848000  0.43750600  1
  Li  Li2  1  0.20501300  0.13152000  0.43750600  1
  Li  Li3  1  0.45239400  0.37409800  0.06378700  1
  Li  Li4  1  0.45430250  0.87524450  0.06309300  1
  Li  Li5  1  0.45239400  0.62590200  0.06378700  1
  Li  Li6  1  0.45430250  0.12475550  0.06309300  1
  Li  Li7  1  0.17213900  0.50000000  0.57092800  1
  Li  Li8  1  0.70501300  0.36848000  0.43750600  1
  Li  Li9  1  0.70501300  0.63152000  0.43750600  1
  Li  Li10  1  0.95239400  0.87409800  0.06378700  1
  Li  Li11  1  0.95430250  0.37524450  0.06309300  1
  Li  Li12  1  0.95239400  0.12590200  0.06378700  1
  Li  Li13  1  0.95430250  0.62475550  0.06309300  1
  Ti  Ti14  1  0.25977700  0.00000000  0.97889700  1
  Ti  Ti15  1  0.25714600  0.25671000  0.97340400  1
  Ti  Ti16  1  0.75971400  0.00000000  0.99917700  1
  Ti  Ti17  1  0.25714600  0.74329000  0.97340400  1
  Ti  Ti18  1  0.50902150  0.25079150  0.52150700  1
  Ti  Ti19  1  0.50902150  0.74920850  0.52150700  1
  Ti  Ti20  1  0.50962900  0.00000000  0.53023300  1
  Ti  Ti21  1  0.00741700  0.00000000  0.51512300  1
  Ti  Ti22  1  0.36746700  0.12534800  0.48092300  1
  Ti  Ti23  1  0.86616400  0.87540900  0.49188400  1
  Ti  Ti24  1  0.86616400  0.12459100  0.49188400  1
  Ti  Ti25  1  0.36746700  0.87465200  0.48092300  1
  Ti  Ti26  1  0.61775600  0.37884900  0.01001300  1
  Ti  Ti27  1  0.61974350  0.86944850  0.03006000  1
  Ti  Ti28  1  0.61974350  0.13055150  0.03006000  1
  Ti  Ti29  1  0.61775600  0.62115100  0.01001300  1
  Ti  Ti30  1  0.75977700  0.50000000  0.97889700  1
  Ti  Ti31  1  0.75714600  0.75671000  0.97340400  1
  Ti  Ti32  1  0.25971400  0.50000000  0.99917700  1
  Ti  Ti33  1  0.75714600  0.24329000  0.97340400  1
  Ti  Ti34  1  0.00902150  0.75079150  0.52150700  1
  Ti  Ti35  1  0.00902150  0.24920850  0.52150700  1
  Ti  Ti36  1  0.00962900  0.50000000  0.53023300  1
  Ti  Ti37  1  0.50741700  0.50000000  0.51512300  1
  Ti  Ti38  1  0.86746700  0.62534800  0.48092300  1
  Ti  Ti39  1  0.36616400  0.37540900  0.49188400  1
  Ti  Ti40  1  0.36616400  0.62459100  0.49188400  1
  Ti  Ti41  1  0.86746700  0.37465200  0.48092300  1
  Ti  Ti42  1  0.11775600  0.87884900  0.01001300  1
  Ti  Ti43  1  0.11974350  0.36944850  0.03006000  1
  Ti  Ti44  1  0.11974350  0.63055150  0.03006000  1
  Ti  Ti45  1  0.11775600  0.12115100  0.01001300  1
  O  O46  1  0.20627300  0.12279300  0.80537000  1
  O  O47  1  0.70545550  0.12247350  0.80346900  1
  O  O48  1  0.70545550  0.87752650  0.80346900  1
  O  O49  1  0.20627300  0.87720700  0.80537000  1
  O  O50  1  0.57631700  0.24809900  0.80439800  1
  O  O51  1  0.07546100  0.00000000  0.79310800  1
  O  O52  1  0.58180700  0.00000000  0.78963400  1
  O  O53  1  0.57631700  0.75190100  0.80439800  1
  O  O54  1  0.32580100  0.24670600  0.69841300  1
  O  O55  1  0.82536400  0.00000000  0.70189800  1
  O  O56  1  0.32692000  0.00000000  0.70051500  1
  O  O57  1  0.32580100  0.75329400  0.69841300  1
  O  O58  1  0.45561950  0.12404250  0.69551800  1
  O  O59  1  0.45441700  0.37368400  0.69614200  1
  O  O60  1  0.45441700  0.62631600  0.69614200  1
  O  O61  1  0.45561950  0.87595750  0.69551800  1
  O  O62  1  0.42007200  0.75126500  0.29148100  1
  O  O63  1  0.42007200  0.24873500  0.29148100  1
  O  O64  1  0.91966600  0.00000000  0.29241100  1
  O  O65  1  0.41902600  0.00000000  0.28835700  1
  O  O66  1  0.54376450  0.37419750  0.28239100  1
  O  O67  1  0.54376450  0.62580250  0.28239100  1
  O  O68  1  0.54384200  0.87690700  0.28709400  1
  O  O69  1  0.54384200  0.12309300  0.28709400  1
  O  O70  1  0.79980400  0.87181400  0.19945800  1
  O  O71  1  0.29348850  0.87496350  0.20998300  1
  O  O72  1  0.79980400  0.12818600  0.19945800  1
  O  O73  1  0.29348850  0.12503650  0.20998300  1
  O  O74  1  0.16940300  0.00000000  0.21453900  1
  O  O75  1  0.66798300  0.00000000  0.20278500  1
  O  O76  1  0.66873550  0.25219850  0.20125200  1
  O  O77  1  0.66873550  0.74780150  0.20125200  1
  O  O78  1  0.70627300  0.62279300  0.80537000  1
  O  O79  1  0.20545550  0.62247350  0.80346900  1
  O  O80  1  0.20545550  0.37752650  0.80346900  1
  O  O81  1  0.70627300  0.37720700  0.80537000  1
  O  O82  1  0.07631700  0.74809900  0.80439800  1
  O  O83  1  0.57546100  0.50000000  0.79310800  1
  O  O84  1  0.08180700  0.50000000  0.78963400  1
  O  O85  1  0.07631700  0.25190100  0.80439800  1
  O  O86  1  0.82580100  0.74670600  0.69841300  1
  O  O87  1  0.32536400  0.50000000  0.70189800  1
  O  O88  1  0.82692000  0.50000000  0.70051500  1
  O  O89  1  0.82580100  0.25329400  0.69841300  1
  O  O90  1  0.95561950  0.62404250  0.69551800  1
  O  O91  1  0.95441700  0.87368400  0.69614200  1
  O  O92  1  0.95441700  0.12631600  0.69614200  1
  O  O93  1  0.95561950  0.37595750  0.69551800  1
  O  O94  1  0.92007200  0.25126500  0.29148100  1
  O  O95  1  0.92007200  0.74873500  0.29148100  1
  O  O96  1  0.41966600  0.50000000  0.29241100  1
  O  O97  1  0.91902600  0.50000000  0.28835700  1
  O  O98  1  0.04376450  0.87419750  0.28239100  1
  O  O99  1  0.04376450  0.12580250  0.28239100  1
  O  O100  1  0.04384200  0.37690700  0.28709400  1
  O  O101  1  0.04384200  0.62309300  0.28709400  1
  O  O102  1  0.29980400  0.37181400  0.19945800  1
  O  O103  1  0.79348850  0.37496350  0.20998300  1
  O  O104  1  0.29980400  0.62818600  0.19945800  1
  O  O105  1  0.79348850  0.62503650  0.20998300  1
  O  O106  1  0.66940300  0.50000000  0.21453900  1
  O  O107  1  0.16798300  0.50000000  0.20278500  1
  O  O108  1  0.16873550  0.75219850  0.20125200  1
  O  O109  1  0.16873550  0.24780150  0.20125200  1
