# generated using pymatgen
data_Li2Ti3VO8
_symmetry_space_group_name_H-M   'P 1'
_cell_length_a   5.98790057
_cell_length_b   5.98790057
_cell_length_c   14.74932355
_cell_angle_alpha   90.00000000
_cell_angle_beta   90.00000000
_cell_angle_gamma   120.00000000
_symmetry_Int_Tables_number   1
_chemical_formula_structural   Li2Ti3VO8
_chemical_formula_sum   'Li6 Ti9 V3 O24'
_cell_volume   457.98567509
_cell_formula_units_Z   3
loop_
 _symmetry_equiv_pos_site_id
 _symmetry_equiv_pos_as_xyz
  1  'x, y, z'
loop_
 _atom_site_type_symbol
 _atom_site_label
 _atom_site_symmetry_multiplicity
 _atom_site_fract_x
 _atom_site_fract_y
 _atom_site_fract_z
 _atom_site_occupancy
  Li  Li0  1  0.00000000  0.00000000  0.12161233  1
  Li  Li1  1  0.66666667  0.33333333  0.21172100  1
  Li  Li2  1  0.66666667  0.33333333  0.45494567  1
  Li  Li3  1  0.33333333  0.66666667  0.54505433  1
  Li  Li4  1  0.33333333  0.66666667  0.78827900  1
  Li  Li5  1  0.00000000  0.00000000  0.87838767  1
  Ti  Ti6  1  0.50000000  0.50000000  0.00000000  1
  Ti  Ti7  1  0.16666667  0.33333333  0.33333333  1
  Ti  Ti8  1  0.66666667  0.83333333  0.33333333  1
  Ti  Ti9  1  0.16666667  0.83333333  0.33333333  1
  Ti  Ti10  1  0.83333333  0.66666667  0.66666667  1
  Ti  Ti11  1  0.33333333  0.16666667  0.66666667  1
  Ti  Ti12  1  0.83333333  0.16666667  0.66666667  1
  Ti  Ti13  1  0.50000000  0.00000000  0.00000000  1
  Ti  Ti14  1  0.00000000  0.50000000  0.00000000  1
  V  V15  1  0.33333333  0.66666667  0.16666667  1
  V  V16  1  1.00000000  1.00000000  0.50000000  1
  V  V17  1  0.66666667  0.33333333  0.83333333  1
  O  O18  1  0.00000000  0.00000000  0.26177600  1
  O  O19  1  0.66666667  0.33333333  0.07155733  1
  O  O20  1  0.63804292  0.81902146  0.07351183  1
  O  O21  1  0.18097854  0.36195708  0.07351183  1
  O  O22  1  0.18097854  0.81902146  0.07351183  1
  O  O23  1  0.48568813  0.51431187  0.25982150  1
  O  O24  1  0.48568813  0.97137625  0.25982150  1
  O  O25  1  0.02862375  0.51431187  0.25982150  1
  O  O26  1  0.66666667  0.33333333  0.59510933  1
  O  O27  1  0.33333333  0.66666667  0.40489067  1
  O  O28  1  0.30470958  0.15235479  0.40684517  1
  O  O29  1  0.84764521  0.69529042  0.40684517  1
  O  O30  1  0.84764521  0.15235479  0.40684517  1
  O  O31  1  0.15235479  0.84764521  0.59315483  1
  O  O32  1  0.15235479  0.30470958  0.59315483  1
  O  O33  1  0.69529042  0.84764521  0.59315483  1
  O  O34  1  0.33333333  0.66666667  0.92844267  1
  O  O35  1  0.00000000  0.00000000  0.73822400  1
  O  O36  1  0.97137625  0.48568813  0.74017850  1
  O  O37  1  0.51431187  0.02862375  0.74017850  1
  O  O38  1  0.51431187  0.48568813  0.74017850  1
  O  O39  1  0.81902146  0.18097854  0.92648817  1
  O  O40  1  0.81902146  0.63804292  0.92648817  1
  O  O41  1  0.36195708  0.18097854  0.92648817  1
