# generated using pymatgen
data_LiAlCoO3
_symmetry_space_group_name_H-M   'P 1'
_cell_length_a   5.29745993
_cell_length_b   5.42806044
_cell_length_c   5.46265516
_cell_angle_alpha   65.51370268
_cell_angle_beta   66.15665290
_cell_angle_gamma   66.03701017
_symmetry_Int_Tables_number   1
_chemical_formula_structural   LiAlCoO3
_chemical_formula_sum   'Li2 Al2 Co2 O6'
_cell_volume   125.26380101
_cell_formula_units_Z   2
loop_
 _symmetry_equiv_pos_site_id
 _symmetry_equiv_pos_as_xyz
  1  'x, y, z'
loop_
 _atom_site_type_symbol
 _atom_site_label
 _atom_site_symmetry_multiplicity
 _atom_site_fract_x
 _atom_site_fract_y
 _atom_site_fract_z
 _atom_site_occupancy
  Li  Li0  1  0.08172750  0.42321050  0.25360100  1
  Li  Li1  1  0.91827250  0.57678950  0.74639900  1
  Al  Al2  1  0.75333450  0.08319100  0.91876150  1
  Al  Al3  1  0.24666550  0.91680900  0.08123850  1
  Co  Co4  1  0.41307700  0.74132250  0.58096050  1
  Co  Co5  1  0.58692300  0.25867750  0.41903950  1
  O  O6  1  0.74750100  0.38918650  0.61308850  1
  O  O7  1  0.25249900  0.61081350  0.38691150  1
  O  O8  1  0.42958800  0.07458700  0.21828400  1
  O  O9  1  0.57041200  0.92541300  0.78171600  1
  O  O10  1  0.07719200  0.78353350  0.92216150  1
  O  O11  1  0.92280800  0.21646650  0.07783850  1
