# generated using pymatgen
data_Li3Fe(PO4)2
_symmetry_space_group_name_H-M   'P 1'
_cell_length_a   8.21786600
_cell_length_b   10.36715100
_cell_length_c   8.31371751
_cell_angle_alpha   90.00000000
_cell_angle_beta   105.04099048
_cell_angle_gamma   90.00000000
_symmetry_Int_Tables_number   1
_chemical_formula_structural   Li3Fe(PO4)2
_chemical_formula_sum   'Li12 Fe4 P8 O32'
_cell_volume   684.02842568
_cell_formula_units_Z   4
loop_
 _symmetry_equiv_pos_site_id
 _symmetry_equiv_pos_as_xyz
  1  'x, y, z'
loop_
 _atom_site_type_symbol
 _atom_site_label
 _atom_site_symmetry_multiplicity
 _atom_site_fract_x
 _atom_site_fract_y
 _atom_site_fract_z
 _atom_site_occupancy
  Li  Li0  1  0.60947100  0.08671800  0.10221800  1
  Li  Li1  1  0.64400600  0.59162100  0.15581900  1
  Li  Li2  1  0.17017700  0.39702400  0.15812200  1
  Li  Li3  1  0.54375500  0.83094000  0.28242100  1
  Li  Li4  1  0.35838200  0.09473800  0.34228300  1
  Li  Li5  1  0.40374100  0.58593900  0.41431400  1
  Li  Li6  1  0.60947100  0.91328200  0.60221800  1
  Li  Li7  1  0.64400600  0.40837900  0.65581900  1
  Li  Li8  1  0.17017700  0.60297600  0.65812200  1
  Li  Li9  1  0.54375500  0.16906000  0.78242100  1
  Li  Li10  1  0.35838200  0.90526200  0.84228300  1
  Li  Li11  1  0.40374100  0.41406100  0.91431400  1
  Fe  Fe12  1  0.08881500  0.91469100  0.09111600  1
  Fe  Fe13  1  0.89923900  0.40550400  0.40530900  1
  Fe  Fe14  1  0.08881500  0.08530900  0.59111600  1
  Fe  Fe15  1  0.89923900  0.59449600  0.90530900  1
  P  P16  1  0.76753300  0.34530300  0.03674500  1
  P  P17  1  0.28178800  0.65954900  0.02943900  1
  P  P18  1  0.70617600  0.15911300  0.47026800  1
  P  P19  1  0.76753300  0.65469700  0.53674500  1
  P  P20  1  0.23388000  0.84139800  0.45694500  1
  P  P21  1  0.28178800  0.34045100  0.52943900  1
  P  P22  1  0.70617600  0.84088700  0.97026800  1
  P  P23  1  0.23388000  0.15860200  0.95694500  1
  O  O24  1  0.75485600  0.69195200  0.00573400  1
  O  O25  1  0.62473500  0.41909700  0.08191000  1
  O  O26  1  0.92973300  0.35515900  0.19266100  1
  O  O27  1  0.25765200  0.29962900  0.00431600  1
  O  O28  1  0.64877000  0.89573500  0.11640600  1
  O  O29  1  0.12023600  0.58849000  0.05966500  1
  O  O30  1  0.19328800  0.08043700  0.10665600  1
  O  O31  1  0.42666700  0.65251200  0.18978900  1
  O  O32  1  0.57179600  0.14377200  0.30659000  1
  O  O33  1  0.81941100  0.57890800  0.39027300  1
  O  O34  1  0.87288800  0.09503400  0.44944100  1
  O  O35  1  0.32421200  0.40194900  0.37932800  1
  O  O36  1  0.72529100  0.79272600  0.48352600  1
  O  O37  1  0.07761800  0.85970400  0.30260400  1
  O  O38  1  0.38692600  0.90646600  0.41364000  1
  O  O39  1  0.75485600  0.30804800  0.50573400  1
  O  O40  1  0.23204700  0.19342100  0.49272500  1
  O  O41  1  0.62473500  0.58090300  0.58191000  1
  O  O42  1  0.92973300  0.64484100  0.69266100  1
  O  O43  1  0.25765200  0.70037100  0.50431600  1
  O  O44  1  0.64877000  0.10426500  0.61640600  1
  O  O45  1  0.12023600  0.41151000  0.55966500  1
  O  O46  1  0.19328800  0.91956300  0.60665600  1
  O  O47  1  0.42666700  0.34748800  0.68978900  1
  O  O48  1  0.57179600  0.85622800  0.80659000  1
  O  O49  1  0.81941100  0.42109200  0.89027300  1
  O  O50  1  0.87288800  0.90496600  0.94944100  1
  O  O51  1  0.32421200  0.59805100  0.87932800  1
  O  O52  1  0.72529100  0.20727400  0.98352600  1
  O  O53  1  0.07761800  0.14029600  0.80260400  1
  O  O54  1  0.38692600  0.09353400  0.91364000  1
  O  O55  1  0.23204700  0.80657900  0.99272500  1
