# generated using pymatgen
data_NbV3O8
_symmetry_space_group_name_H-M   'P 1'
_cell_length_a   5.92062400
_cell_length_b   10.59860600
_cell_length_c   9.33194500
_cell_angle_alpha   90.00000000
_cell_angle_beta   90.00000000
_cell_angle_gamma   90.00000000
_symmetry_Int_Tables_number   1
_chemical_formula_structural   NbV3O8
_chemical_formula_sum   'Nb4 V12 O32'
_cell_volume   585.58291805
_cell_formula_units_Z   4
loop_
 _symmetry_equiv_pos_site_id
 _symmetry_equiv_pos_as_xyz
  1  'x, y, z'
loop_
 _atom_site_type_symbol
 _atom_site_label
 _atom_site_symmetry_multiplicity
 _atom_site_fract_x
 _atom_site_fract_y
 _atom_site_fract_z
 _atom_site_occupancy
  Nb  Nb0  1  0.00000000  0.32891100  0.49874000  1
  Nb  Nb1  1  0.50000000  0.17108900  0.99874000  1
  Nb  Nb2  1  0.50000000  0.82891100  0.49874000  1
  Nb  Nb3  1  0.00000000  0.67108900  0.99874000  1
  V  V4  1  0.24512700  0.41689900  0.21864000  1
  V  V5  1  0.75487300  0.41689900  0.21864000  1
  V  V6  1  0.00000000  0.16932900  0.20780300  1
  V  V7  1  0.50000000  0.33067100  0.70780300  1
  V  V8  1  0.74512700  0.08310100  0.71864000  1
  V  V9  1  0.25487300  0.08310100  0.71864000  1
  V  V10  1  0.74512700  0.91689900  0.21864000  1
  V  V11  1  0.25487300  0.91689900  0.21864000  1
  V  V12  1  0.50000000  0.66932900  0.20780300  1
  V  V13  1  0.00000000  0.83067100  0.70780300  1
  V  V14  1  0.24512700  0.58310100  0.71864000  1
  V  V15  1  0.75487300  0.58310100  0.71864000  1
  O  O16  1  0.24426250  0.41543550  0.60061300  1
  O  O17  1  0.00000000  0.47791700  0.33699400  1
  O  O18  1  0.00000000  0.34712800  0.10649000  1
  O  O19  1  0.50000000  0.49180600  0.30349800  1
  O  O20  1  0.00000000  0.00819400  0.80349800  1
  O  O21  1  0.75573750  0.41543550  0.60061300  1
  O  O22  1  0.22018700  0.26776000  0.33492500  1
  O  O23  1  0.77981300  0.26776000  0.33492500  1
  O  O24  1  0.50000000  0.33006100  0.09880100  1
  O  O25  1  0.00000000  0.16993900  0.59880100  1
  O  O26  1  0.72018700  0.23224000  0.83492500  1
  O  O27  1  0.27981300  0.23224000  0.83492500  1
  O  O28  1  0.50000000  0.15287200  0.60649000  1
  O  O29  1  0.74426250  0.08456450  0.10061300  1
  O  O30  1  0.50000000  0.02208300  0.83699400  1
  O  O31  1  0.25573750  0.08456450  0.10061300  1
  O  O32  1  0.74426250  0.91543550  0.60061300  1
  O  O33  1  0.50000000  0.97791700  0.33699400  1
  O  O34  1  0.50000000  0.84712800  0.10649000  1
  O  O35  1  0.00000000  0.99180600  0.30349800  1
  O  O36  1  0.50000000  0.50819400  0.80349800  1
  O  O37  1  0.25573750  0.91543550  0.60061300  1
  O  O38  1  0.72018700  0.76776000  0.33492500  1
  O  O39  1  0.27981300  0.76776000  0.33492500  1
  O  O40  1  0.00000000  0.83006100  0.09880100  1
  O  O41  1  0.50000000  0.66993900  0.59880100  1
  O  O42  1  0.22018700  0.73224000  0.83492500  1
  O  O43  1  0.77981300  0.73224000  0.83492500  1
  O  O44  1  0.00000000  0.65287200  0.60649000  1
  O  O45  1  0.24426250  0.58456450  0.10061300  1
  O  O46  1  0.00000000  0.52208300  0.83699400  1
  O  O47  1  0.75573750  0.58456450  0.10061300  1
