# generated using pymatgen
data_Li3TiCr2O6
_symmetry_space_group_name_H-M   'P 1'
_cell_length_a   12.98328042
_cell_length_b   2.95374015
_cell_length_c   5.99384004
_cell_angle_alpha   90.00000000
_cell_angle_beta   104.05905977
_cell_angle_gamma   90.00000000
_symmetry_Int_Tables_number   1
_chemical_formula_structural   Li3TiCr2O6
_chemical_formula_sum   'Li6 Ti2 Cr4 O12'
_cell_volume   222.97395136
_cell_formula_units_Z   2
loop_
 _symmetry_equiv_pos_site_id
 _symmetry_equiv_pos_as_xyz
  1  'x, y, z'
loop_
 _atom_site_type_symbol
 _atom_site_label
 _atom_site_symmetry_multiplicity
 _atom_site_fract_x
 _atom_site_fract_y
 _atom_site_fract_z
 _atom_site_occupancy
  Li  Li0  1  0.00000000  0.50000000  0.50000000  1
  Li  Li1  1  0.66839650  0.50000000  0.82976800  1
  Li  Li2  1  0.83160350  0.00000000  0.17023200  1
  Li  Li3  1  0.50000000  0.00000000  0.50000000  1
  Li  Li4  1  0.16839650  0.00000000  0.82976800  1
  Li  Li5  1  0.33160350  0.50000000  0.17023200  1
  Ti  Ti6  1  0.00000000  0.50000000  0.00000000  1
  Ti  Ti7  1  0.50000000  0.00000000  0.00000000  1
  Cr  Cr8  1  0.16556750  0.00000000  0.33265200  1
  Cr  Cr9  1  0.83443250  0.00000000  0.66734800  1
  Cr  Cr10  1  0.66556750  0.50000000  0.33265200  1
  Cr  Cr11  1  0.33443250  0.50000000  0.66734800  1
  O  O12  1  0.16243800  0.50000000  0.09559500  1
  O  O13  1  0.82680300  0.50000000  0.43237000  1
  O  O14  1  0.83756200  0.50000000  0.90440500  1
  O  O15  1  0.99631800  0.00000000  0.75462100  1
  O  O16  1  0.00368200  0.00000000  0.24537900  1
  O  O17  1  0.67319700  0.00000000  0.56763000  1
  O  O18  1  0.66243800  0.00000000  0.09559500  1
  O  O19  1  0.32680300  0.00000000  0.43237000  1
  O  O20  1  0.33756200  0.00000000  0.90440500  1
  O  O21  1  0.49631800  0.50000000  0.75462100  1
  O  O22  1  0.50368200  0.50000000  0.24537900  1
  O  O23  1  0.17319700  0.50000000  0.56763000  1
