# generated using pymatgen
data_Li2AlCoO4
_symmetry_space_group_name_H-M   'P 1'
_cell_length_a   7.51758000
_cell_length_b   7.57988400
_cell_length_c   6.32346800
_cell_angle_alpha   90.00000000
_cell_angle_beta   90.00000000
_cell_angle_gamma   90.00000000
_symmetry_Int_Tables_number   1
_chemical_formula_structural   Li2AlCoO4
_chemical_formula_sum   'Li8 Al4 Co4 O16'
_cell_volume   360.32628413
_cell_formula_units_Z   4
loop_
 _symmetry_equiv_pos_site_id
 _symmetry_equiv_pos_as_xyz
  1  'x, y, z'
loop_
 _atom_site_type_symbol
 _atom_site_label
 _atom_site_symmetry_multiplicity
 _atom_site_fract_x
 _atom_site_fract_y
 _atom_site_fract_z
 _atom_site_occupancy
  Li  Li0  1  0.81697950  0.50000000  0.50000000  1
  Li  Li1  1  0.18302050  0.50000000  0.00000000  1
  Li  Li2  1  0.00000000  0.18407800  0.75000000  1
  Li  Li3  1  0.00000000  0.81592200  0.25000000  1
  Li  Li4  1  0.31697950  0.00000000  0.50000000  1
  Li  Li5  1  0.68302050  0.00000000  0.00000000  1
  Li  Li6  1  0.50000000  0.68407800  0.75000000  1
  Li  Li7  1  0.50000000  0.31592200  0.25000000  1
  Al  Al8  1  0.82074100  0.50000000  0.00000000  1
  Al  Al9  1  0.17925900  0.50000000  0.50000000  1
  Al  Al10  1  0.32074100  0.00000000  0.00000000  1
  Al  Al11  1  0.67925900  0.00000000  0.50000000  1
  Co  Co12  1  0.00000000  0.17452100  0.25000000  1
  Co  Co13  1  0.00000000  0.82547900  0.75000000  1
  Co  Co14  1  0.50000000  0.67452100  0.25000000  1
  Co  Co15  1  0.50000000  0.32547900  0.75000000  1
  O  O16  1  0.68776400  0.51062000  0.23197700  1
  O  O17  1  0.68776400  0.48938000  0.76802300  1
  O  O18  1  0.31223600  0.48938000  0.73197700  1
  O  O19  1  0.31223600  0.51062000  0.26802300  1
  O  O20  1  0.97294850  0.31936750  0.01390400  1
  O  O21  1  0.97294850  0.68063250  0.98609600  1
  O  O22  1  0.02705150  0.31936750  0.48609600  1
  O  O23  1  0.02705150  0.68063250  0.51390400  1
  O  O24  1  0.18776400  0.01062000  0.23197700  1
  O  O25  1  0.18776400  0.98938000  0.76802300  1
  O  O26  1  0.81223600  0.98938000  0.73197700  1
  O  O27  1  0.81223600  0.01062000  0.26802300  1
  O  O28  1  0.47294850  0.81936750  0.01390400  1
  O  O29  1  0.47294850  0.18063250  0.98609600  1
  O  O30  1  0.52705150  0.81936750  0.48609600  1
  O  O31  1  0.52705150  0.18063250  0.51390400  1
