# generated using pymatgen
data_V2CrO6
_symmetry_space_group_name_H-M   'P 1'
_cell_length_a   10.00066600
_cell_length_b   9.10475400
_cell_length_c   5.70810371
_cell_angle_alpha   90.00000000
_cell_angle_beta   110.24743167
_cell_angle_gamma   90.00000000
_symmetry_Int_Tables_number   1
_chemical_formula_structural   V2CrO6
_chemical_formula_sum   'V8 Cr4 O24'
_cell_volume   487.62683064
_cell_formula_units_Z   4
loop_
 _symmetry_equiv_pos_site_id
 _symmetry_equiv_pos_as_xyz
  1  'x, y, z'
loop_
 _atom_site_type_symbol
 _atom_site_label
 _atom_site_symmetry_multiplicity
 _atom_site_fract_x
 _atom_site_fract_y
 _atom_site_fract_z
 _atom_site_occupancy
  V  V0  1  0.20221500  0.40277400  0.73974100  1
  V  V1  1  0.20221500  0.59722600  0.23974100  1
  V  V2  1  0.79778500  0.40277400  0.76025900  1
  V  V3  1  0.79778500  0.59722600  0.26025900  1
  V  V4  1  0.70221500  0.90277400  0.73974100  1
  V  V5  1  0.70221500  0.09722600  0.23974100  1
  V  V6  1  0.29778500  0.90277400  0.76025900  1
  V  V7  1  0.29778500  0.09722600  0.26025900  1
  Cr  Cr8  1  0.00000000  0.08368100  0.75000000  1
  Cr  Cr9  1  0.00000000  0.91631900  0.25000000  1
  Cr  Cr10  1  0.50000000  0.58368100  0.75000000  1
  Cr  Cr11  1  0.50000000  0.41631900  0.25000000  1
  O  O12  1  0.39082050  0.42214650  0.86883500  1
  O  O13  1  0.14042150  0.22483050  0.71250300  1
  O  O14  1  0.39082050  0.57785350  0.36883500  1
  O  O15  1  0.13791800  0.50883800  0.94252400  1
  O  O16  1  0.85957850  0.22483050  0.78749700  1
  O  O17  1  0.13791800  0.49116200  0.44252400  1
  O  O18  1  0.86208200  0.50883800  0.55747600  1
  O  O19  1  0.14042150  0.77516950  0.21250300  1
  O  O20  1  0.86208200  0.49116200  0.05747600  1
  O  O21  1  0.60917950  0.42214650  0.63116500  1
  O  O22  1  0.85957850  0.77516950  0.28749700  1
  O  O23  1  0.60917950  0.57785350  0.13116500  1
  O  O24  1  0.89082050  0.92214650  0.86883500  1
  O  O25  1  0.64042150  0.72483050  0.71250300  1
  O  O26  1  0.89082050  0.07785350  0.36883500  1
  O  O27  1  0.63791800  0.00883800  0.94252400  1
  O  O28  1  0.35957850  0.72483050  0.78749700  1
  O  O29  1  0.63791800  0.99116200  0.44252400  1
  O  O30  1  0.36208200  0.00883800  0.55747600  1
  O  O31  1  0.64042150  0.27516950  0.21250300  1
  O  O32  1  0.36208200  0.99116200  0.05747600  1
  O  O33  1  0.10917950  0.92214650  0.63116500  1
  O  O34  1  0.35957850  0.27516950  0.28749700  1
  O  O35  1  0.10917950  0.07785350  0.13116500  1
