# generated using pymatgen
data_Li5Nb2V5O12
_symmetry_space_group_name_H-M   'P 1'
_cell_length_a   5.18276514
_cell_length_b   9.12994755
_cell_length_c   10.20038434
_cell_angle_alpha   90.00000000
_cell_angle_beta   100.98256511
_cell_angle_gamma   90.00000000
_symmetry_Int_Tables_number   1
_chemical_formula_structural   Li5Nb2V5O12
_chemical_formula_sum   'Li10 Nb4 V10 O24'
_cell_volume   473.82567625
_cell_formula_units_Z   2
loop_
 _symmetry_equiv_pos_site_id
 _symmetry_equiv_pos_as_xyz
  1  'x, y, z'
loop_
 _atom_site_type_symbol
 _atom_site_label
 _atom_site_symmetry_multiplicity
 _atom_site_fract_x
 _atom_site_fract_y
 _atom_site_fract_z
 _atom_site_occupancy
  Li  Li0  1  0.25733450  0.57788050  0.74518300  1
  Li  Li1  1  0.75334150  0.92863450  0.25793000  1
  Li  Li2  1  0.74266550  0.57788050  0.25481700  1
  Li  Li3  1  0.24665850  0.92863450  0.74207000  1
  Li  Li4  1  0.50000000  0.57691300  0.50000000  1
  Li  Li5  1  0.75733450  0.07788050  0.74518300  1
  Li  Li6  1  0.25334150  0.42863450  0.25793000  1
  Li  Li7  1  0.24266550  0.07788050  0.25481700  1
  Li  Li8  1  0.74665850  0.42863450  0.74207000  1
  Li  Li9  1  0.00000000  0.07691300  0.50000000  1
  Nb  Nb10  1  0.00000000  0.74821400  0.50000000  1
  Nb  Nb11  1  0.50000000  0.75671000  0.00000000  1
  Nb  Nb12  1  0.50000000  0.24821400  0.50000000  1
  Nb  Nb13  1  0.00000000  0.25671000  0.00000000  1
  V  V14  1  0.25298500  0.74920400  0.25657600  1
  V  V15  1  0.74701500  0.74920400  0.74342400  1
  V  V16  1  0.00000000  0.56874400  0.00000000  1
  V  V17  1  0.50000000  0.91832900  0.50000000  1
  V  V18  1  0.00000000  0.92193700  0.00000000  1
  V  V19  1  0.75298500  0.24920400  0.25657600  1
  V  V20  1  0.24701500  0.24920400  0.74342400  1
  V  V21  1  0.50000000  0.06874400  0.00000000  1
  V  V22  1  0.00000000  0.41832900  0.50000000  1
  V  V23  1  0.50000000  0.42193700  0.00000000  1
  O  O24  1  0.11412600  0.91108400  0.38023300  1
  O  O25  1  0.88587400  0.91108400  0.61976700  1
  O  O26  1  0.12962600  0.74762500  0.88185900  1
  O  O27  1  0.87037400  0.74762500  0.11814100  1
  O  O28  1  0.12037750  0.58777550  0.38064500  1
  O  O29  1  0.87962250  0.58777550  0.61935500  1
  O  O30  1  0.62654700  0.91616700  0.86755100  1
  O  O31  1  0.37345300  0.91616700  0.13244900  1
  O  O32  1  0.63662850  0.74907750  0.38147600  1
  O  O33  1  0.36337150  0.74907750  0.61852400  1
  O  O34  1  0.62278200  0.58712900  0.87416000  1
  O  O35  1  0.37721800  0.58712900  0.12584000  1
  O  O36  1  0.61412600  0.41108400  0.38023300  1
  O  O37  1  0.38587400  0.41108400  0.61976700  1
  O  O38  1  0.62962600  0.24762500  0.88185900  1
  O  O39  1  0.37037400  0.24762500  0.11814100  1
  O  O40  1  0.62037750  0.08777550  0.38064500  1
  O  O41  1  0.37962250  0.08777550  0.61935500  1
  O  O42  1  0.12654700  0.41616700  0.86755100  1
  O  O43  1  0.87345300  0.41616700  0.13244900  1
  O  O44  1  0.13662850  0.24907750  0.38147600  1
  O  O45  1  0.86337150  0.24907750  0.61852400  1
  O  O46  1  0.12278200  0.08712900  0.87416000  1
  O  O47  1  0.87721800  0.08712900  0.12584000  1
