# generated using pymatgen
data_Li4Co5SbO12
_symmetry_space_group_name_H-M   'P 1'
_cell_length_a   4.99163600
_cell_length_b   8.69306200
_cell_length_c   9.88437596
_cell_angle_alpha   90.00000000
_cell_angle_beta   94.56242045
_cell_angle_gamma   90.00000000
_symmetry_Int_Tables_number   1
_chemical_formula_structural   Li4Co5SbO12
_chemical_formula_sum   'Li8 Co10 Sb2 O24'
_cell_volume   427.54968651
_cell_formula_units_Z   2
loop_
 _symmetry_equiv_pos_site_id
 _symmetry_equiv_pos_as_xyz
  1  'x, y, z'
loop_
 _atom_site_type_symbol
 _atom_site_label
 _atom_site_symmetry_multiplicity
 _atom_site_fract_x
 _atom_site_fract_y
 _atom_site_fract_z
 _atom_site_occupancy
  Li  Li0  1  0.13556950  0.66714750  0.28340600  1
  Li  Li1  1  0.86443050  0.66714750  0.71659400  1
  Li  Li2  1  0.63556950  0.83285250  0.28340600  1
  Li  Li3  1  0.36443050  0.83285250  0.71659400  1
  Li  Li4  1  0.63556950  0.16714750  0.28340600  1
  Li  Li5  1  0.36443050  0.16714750  0.71659400  1
  Li  Li6  1  0.13556950  0.33285250  0.28340600  1
  Li  Li7  1  0.86443050  0.33285250  0.71659400  1
  Co  Co8  1  0.00000000  0.83528800  0.50000000  1
  Co  Co9  1  0.50000000  0.83388000  0.00000000  1
  Co  Co10  1  0.00000000  0.66612000  0.00000000  1
  Co  Co11  1  0.50000000  0.66471200  0.50000000  1
  Co  Co12  1  0.50000000  0.00000000  0.50000000  1
  Co  Co13  1  0.50000000  0.33528800  0.50000000  1
  Co  Co14  1  0.00000000  0.33388000  0.00000000  1
  Co  Co15  1  0.50000000  0.16612000  0.00000000  1
  Co  Co16  1  0.00000000  0.16471200  0.50000000  1
  Co  Co17  1  0.00000000  0.50000000  0.50000000  1
  Sb  Sb18  1  0.00000000  0.00000000  0.00000000  1
  Sb  Sb19  1  0.50000000  0.50000000  0.00000000  1
  O  O20  1  0.15703750  0.82706150  0.89566100  1
  O  O21  1  0.84296250  0.82706150  0.10433900  1
  O  O22  1  0.17902400  0.66995800  0.60224800  1
  O  O23  1  0.67902400  0.83004200  0.60224800  1
  O  O24  1  0.82097600  0.66995800  0.39775200  1
  O  O25  1  0.81076400  0.00000000  0.39647500  1
  O  O26  1  0.32097600  0.83004200  0.39775200  1
  O  O27  1  0.65703750  0.67293850  0.89566100  1
  O  O28  1  0.63494400  0.00000000  0.89664200  1
  O  O29  1  0.34296250  0.67293850  0.10433900  1
  O  O30  1  0.36505600  0.00000000  0.10335800  1
  O  O31  1  0.18923600  0.00000000  0.60352500  1
  O  O32  1  0.65703750  0.32706150  0.89566100  1
  O  O33  1  0.34296250  0.32706150  0.10433900  1
  O  O34  1  0.67902400  0.16995800  0.60224800  1
  O  O35  1  0.17902400  0.33004200  0.60224800  1
  O  O36  1  0.32097600  0.16995800  0.39775200  1
  O  O37  1  0.31076400  0.50000000  0.39647500  1
  O  O38  1  0.82097600  0.33004200  0.39775200  1
  O  O39  1  0.15703750  0.17293850  0.89566100  1
  O  O40  1  0.13494400  0.50000000  0.89664200  1
  O  O41  1  0.84296250  0.17293850  0.10433900  1
  O  O42  1  0.86505600  0.50000000  0.10335800  1
  O  O43  1  0.68923600  0.50000000  0.60352500  1
