# generated using pymatgen
data_LiFe2P3O11
_symmetry_space_group_name_H-M   'P 1'
_cell_length_a   11.55467400
_cell_length_b   8.70969000
_cell_length_c   8.84212625
_cell_angle_alpha   90.00000000
_cell_angle_beta   115.20630042
_cell_angle_gamma   90.00000000
_symmetry_Int_Tables_number   1
_chemical_formula_structural   LiFe2P3O11
_chemical_formula_sum   'Li4 Fe8 P12 O44'
_cell_volume   805.11924414
_cell_formula_units_Z   4
loop_
 _symmetry_equiv_pos_site_id
 _symmetry_equiv_pos_as_xyz
  1  'x, y, z'
loop_
 _atom_site_type_symbol
 _atom_site_label
 _atom_site_symmetry_multiplicity
 _atom_site_fract_x
 _atom_site_fract_y
 _atom_site_fract_z
 _atom_site_occupancy
  Li  Li0  1  0.25119700  0.73479700  0.73777000  1
  Li  Li1  1  0.74880300  0.73479700  0.26223000  1
  Li  Li2  1  0.75119700  0.23479700  0.73777000  1
  Li  Li3  1  0.24880300  0.23479700  0.26223000  1
  Fe  Fe4  1  0.12238700  0.23503300  0.79711600  1
  Fe  Fe5  1  0.12167800  0.76458600  0.29600300  1
  Fe  Fe6  1  0.87761300  0.23503300  0.20288400  1
  Fe  Fe7  1  0.87832200  0.76458600  0.70399700  1
  Fe  Fe8  1  0.62238700  0.73503300  0.79711600  1
  Fe  Fe9  1  0.62167800  0.26458600  0.29600300  1
  Fe  Fe10  1  0.37761300  0.73503300  0.20288400  1
  Fe  Fe11  1  0.37832200  0.26458600  0.70399700  1
  P  P12  1  0.11322200  0.56306400  0.96513100  1
  P  P13  1  0.00000000  0.04283700  0.00000000  1
  P  P14  1  0.11405500  0.43567600  0.46598600  1
  P  P15  1  0.88677800  0.56306400  0.03486900  1
  P  P16  1  0.00000000  0.95761500  0.50000000  1
  P  P17  1  0.88594500  0.43567600  0.53401400  1
  P  P18  1  0.61322200  0.06306400  0.96513100  1
  P  P19  1  0.50000000  0.54283700  0.00000000  1
  P  P20  1  0.61405500  0.93567600  0.46598600  1
  P  P21  1  0.38677800  0.06306400  0.03486900  1
  P  P22  1  0.50000000  0.45761500  0.50000000  1
  P  P23  1  0.38594500  0.93567600  0.53401400  1
  O  O24  1  0.43398700  0.44627300  0.84163900  1
  O  O25  1  0.43497550  0.55492550  0.34223600  1
  O  O26  1  0.18700300  0.42945600  0.94013400  1
  O  O27  1  0.19071700  0.65748900  0.12584900  1
  O  O28  1  0.05520400  0.67029100  0.81319500  1
  O  O29  1  0.10583250  0.15106550  0.99289800  1
  O  O30  1  0.18840800  0.57220100  0.44644400  1
  O  O31  1  0.00000000  0.48747900  0.00000000  1
  O  O32  1  0.19128850  0.34127450  0.62660300  1
  O  O33  1  0.05795750  0.32934950  0.31364600  1
  O  O34  1  0.10563800  0.84895800  0.49237400  1
  O  O35  1  0.89416750  0.15106550  0.00710200  1
  O  O36  1  0.94479600  0.67029100  0.18680500  1
  O  O37  1  0.80928300  0.65748900  0.87415100  1
  O  O38  1  0.00000000  0.51022200  0.50000000  1
  O  O39  1  0.81299700  0.42945600  0.05986600  1
  O  O40  1  0.89436200  0.84895800  0.50762600  1
  O  O41  1  0.94204250  0.32934950  0.68635400  1
  O  O42  1  0.80871150  0.34127450  0.37339700  1
  O  O43  1  0.81159200  0.57220100  0.55355600  1
  O  O44  1  0.56601300  0.44627300  0.15836100  1
  O  O45  1  0.56502450  0.55492550  0.65776400  1
  O  O46  1  0.93398700  0.94627300  0.84163900  1
  O  O47  1  0.93497550  0.05492550  0.34223600  1
  O  O48  1  0.68700300  0.92945600  0.94013400  1
  O  O49  1  0.69071700  0.15748900  0.12584900  1
  O  O50  1  0.55520400  0.17029100  0.81319500  1
  O  O51  1  0.60583250  0.65106550  0.99289800  1
  O  O52  1  0.68840800  0.07220100  0.44644400  1
  O  O53  1  0.50000000  0.98747900  0.00000000  1
  O  O54  1  0.69128850  0.84127450  0.62660300  1
  O  O55  1  0.55795750  0.82934950  0.31364600  1
  O  O56  1  0.60563800  0.34895800  0.49237400  1
  O  O57  1  0.39416750  0.65106550  0.00710200  1
  O  O58  1  0.44479600  0.17029100  0.18680500  1
  O  O59  1  0.30928300  0.15748900  0.87415100  1
  O  O60  1  0.50000000  0.01022200  0.50000000  1
  O  O61  1  0.31299700  0.92945600  0.05986600  1
  O  O62  1  0.39436200  0.34895800  0.50762600  1
  O  O63  1  0.44204250  0.82934950  0.68635400  1
  O  O64  1  0.30871150  0.84127450  0.37339700  1
  O  O65  1  0.31159200  0.07220100  0.55355600  1
  O  O66  1  0.06601300  0.94627300  0.15836100  1
  O  O67  1  0.06502450  0.05492550  0.65776400  1
