# generated using pymatgen
data_LiCrP2O7
_symmetry_space_group_name_H-M   'P 1'
_cell_length_a   6.49121132
_cell_length_b   8.32657700
_cell_length_c   9.01634064
_cell_angle_alpha   90.00000000
_cell_angle_beta   102.53133144
_cell_angle_gamma   90.00000000
_symmetry_Int_Tables_number   1
_chemical_formula_structural   LiCrP2O7
_chemical_formula_sum   'Li4 Cr4 P8 O28'
_cell_volume   475.71994134
_cell_formula_units_Z   4
loop_
 _symmetry_equiv_pos_site_id
 _symmetry_equiv_pos_as_xyz
  1  'x, y, z'
loop_
 _atom_site_type_symbol
 _atom_site_label
 _atom_site_symmetry_multiplicity
 _atom_site_fract_x
 _atom_site_fract_y
 _atom_site_fract_z
 _atom_site_occupancy
  Li  Li0  1  0.99488500  0.30300900  0.00229400  1
  Li  Li1  1  0.99488500  0.69699100  0.50229400  1
  Li  Li2  1  0.49488500  0.80300900  0.00229400  1
  Li  Li3  1  0.49488500  0.19699100  0.50229400  1
  Cr  Cr4  1  0.00139400  0.32339200  0.50001900  1
  Cr  Cr5  1  0.00139400  0.67660800  0.00001900  1
  Cr  Cr6  1  0.50139400  0.82339200  0.50001900  1
  Cr  Cr7  1  0.50139400  0.17660800  0.00001900  1
  P  P8  1  0.72046250  0.50851650  0.70259900  1
  P  P9  1  0.72046250  0.49148350  0.20259900  1
  P  P10  1  0.28081350  0.49675750  0.79676900  1
  P  P11  1  0.28081350  0.50324250  0.29676900  1
  P  P12  1  0.22046250  0.00851650  0.70259900  1
  P  P13  1  0.22046250  0.99148350  0.20259900  1
  P  P14  1  0.78081350  0.99675750  0.79676900  1
  P  P15  1  0.78081350  0.00324250  0.29676900  1
  O  O16  1  0.73807050  0.35599650  0.60964600  1
  O  O17  1  0.72142850  0.66376950  0.61110800  1
  O  O18  1  0.87720050  0.50284150  0.85768200  1
  O  O19  1  0.73807050  0.64400350  0.10964600  1
  O  O20  1  0.72142850  0.33623050  0.11110800  1
  O  O21  1  0.87720050  0.49715850  0.35768200  1
  O  O22  1  0.99845300  0.01497100  0.74786700  1
  O  O23  1  0.99845300  0.98502900  0.24786700  1
  O  O24  1  0.12059700  0.49593800  0.64326800  1
  O  O25  1  0.25196100  0.64758600  0.88925600  1
  O  O26  1  0.29476200  0.34185700  0.88944800  1
  O  O27  1  0.12059700  0.50406200  0.14326800  1
  O  O28  1  0.25196100  0.35241400  0.38925600  1
  O  O29  1  0.29476200  0.65814300  0.38944800  1
  O  O30  1  0.23807050  0.85599650  0.60964600  1
  O  O31  1  0.22142850  0.16376950  0.61110800  1
  O  O32  1  0.37720050  0.00284150  0.85768200  1
  O  O33  1  0.23807050  0.14400350  0.10964600  1
  O  O34  1  0.22142850  0.83623050  0.11110800  1
  O  O35  1  0.37720050  0.99715850  0.35768200  1
  O  O36  1  0.49845300  0.51497100  0.74786700  1
  O  O37  1  0.49845300  0.48502900  0.24786700  1
  O  O38  1  0.62059700  0.99593800  0.64326800  1
  O  O39  1  0.75196100  0.14758600  0.88925600  1
  O  O40  1  0.79476200  0.84185700  0.88944800  1
  O  O41  1  0.62059700  0.00406200  0.14326800  1
  O  O42  1  0.75196100  0.85241400  0.38925600  1
  O  O43  1  0.79476200  0.15814300  0.38944800  1
