# generated using pymatgen
data_Fe3Ni2Sn(PO4)6
_symmetry_space_group_name_H-M   'P 1'
_cell_length_a   8.65558236
_cell_length_b   8.65558236
_cell_length_c   20.77220994
_cell_angle_alpha   90.00000000
_cell_angle_beta   90.00000000
_cell_angle_gamma   120.00000000
_symmetry_Int_Tables_number   1
_chemical_formula_structural   Fe3Ni2Sn(PO4)6
_chemical_formula_sum   'Fe9 Ni6 Sn3 P18 O72'
_cell_volume   1347.73938889
_cell_formula_units_Z   3
loop_
 _symmetry_equiv_pos_site_id
 _symmetry_equiv_pos_as_xyz
  1  'x, y, z'
loop_
 _atom_site_type_symbol
 _atom_site_label
 _atom_site_symmetry_multiplicity
 _atom_site_fract_x
 _atom_site_fract_y
 _atom_site_fract_z
 _atom_site_occupancy
  Fe  Fe0  1  0.33333333  0.66666667  0.81213867  1
  Fe  Fe1  1  0.33333333  0.66666667  0.02109667  1
  Fe  Fe2  1  0.33333333  0.66666667  0.31055067  1
  Fe  Fe3  1  0.00000000  0.00000000  0.14547200  1
  Fe  Fe4  1  0.00000000  0.00000000  0.35443000  1
  Fe  Fe5  1  0.00000000  0.00000000  0.64388400  1
  Fe  Fe6  1  0.66666667  0.33333333  0.47880533  1
  Fe  Fe7  1  0.66666667  0.33333333  0.68776333  1
  Fe  Fe8  1  0.66666667  0.33333333  0.97721733  1
  Ni  Ni9  1  0.33333333  0.66666667  0.67014367  1
  Ni  Ni10  1  0.33333333  0.66666667  0.16598067  1
  Ni  Ni11  1  0.00000000  0.00000000  0.00347700  1
  Ni  Ni12  1  0.00000000  0.00000000  0.49931400  1
  Ni  Ni13  1  0.66666667  0.33333333  0.33681033  1
  Ni  Ni14  1  0.66666667  0.33333333  0.83264733  1
  Sn  Sn15  1  0.33333333  0.66666667  0.52278267  1
  Sn  Sn16  1  0.00000000  0.00000000  0.85611600  1
  Sn  Sn17  1  0.66666667  0.33333333  0.18944933  1
  P  P18  1  0.66587067  0.03295133  0.08214433  1
  P  P19  1  0.96704867  0.63291933  0.08214433  1
  P  P20  1  0.36708067  0.33412933  0.08214433  1
  P  P21  1  0.00472000  0.29703000  0.24986900  1
  P  P22  1  0.29231000  0.99528000  0.24986900  1
  P  P23  1  0.70297000  0.70769000  0.24986900  1
  P  P24  1  0.33253733  0.36628467  0.41547767  1
  P  P25  1  0.63371533  0.96625267  0.41547767  1
  P  P26  1  0.03374733  0.66746267  0.41547767  1
  P  P27  1  0.67138667  0.63036333  0.58320233  1
  P  P28  1  0.95897667  0.32861333  0.58320233  1
  P  P29  1  0.36963667  0.04102333  0.58320233  1
  P  P30  1  0.99920400  0.69961800  0.74881100  1
  P  P31  1  0.30038200  0.29958600  0.74881100  1
  P  P32  1  0.70041400  0.00079600  0.74881100  1
  P  P33  1  0.33805333  0.96369667  0.91653567  1
  P  P34  1  0.62564333  0.66194667  0.91653567  1
  P  P35  1  0.03630333  0.37435667  0.91653567  1
  O  O36  1  0.12945333  0.47476967  0.97740667  1
  O  O37  1  0.34531633  0.87054667  0.97740667  1
  O  O38  1  0.98819867  0.82157433  0.07458433  1
  O  O39  1  0.52523033  0.65468367  0.97740667  1
  O  O40  1  0.87004967  0.54243433  0.14509233  1
  O  O41  1  0.15641167  0.65705433  0.09077433  1
  O  O42  1  0.17842567  0.16662433  0.07458433  1
  O  O43  1  0.34294567  0.49935733  0.09077433  1
  O  O44  1  0.99255667  0.19436933  0.18884033  1
  O  O45  1  0.50064267  0.84358833  0.09077433  1
  O  O46  1  0.83490700  0.31946900  0.25968200  1
  O  O47  1  0.20181267  0.00744333  0.18884033  1
  O  O48  1  0.45756567  0.32761533  0.14509233  1
  O  O49  1  0.83337567  0.01180133  0.07458433  1
  O  O50  1  0.16844267  0.48751933  0.24087833  1
  O  O51  1  0.67238467  0.12995033  0.14509233  1
  O  O52  1  0.31907667  0.83155733  0.24087833  1
  O  O53  1  0.48456200  0.16509300  0.25968200  1
  O  O54  1  0.51248067  0.68092333  0.24087833  1
  O  O55  1  0.80563067  0.79818733  0.18884033  1
  O  O56  1  0.14024933  0.67352867  0.35649767  1
  O  O57  1  0.68053100  0.51543800  0.25968200  1
  O  O58  1  0.32647133  0.46672067  0.35649767  1
  O  O59  1  0.53327933  0.85975067  0.35649767  1
  O  O60  1  0.79612000  0.80810300  0.31074000  1
  O  O61  1  0.01198300  0.20388000  0.31074000  1
  O  O62  1  0.65486533  0.15490767  0.40791767  1
  O  O63  1  0.19189700  0.98801700  0.31074000  1
  O  O64  1  0.53671633  0.87576767  0.47842567  1
  O  O65  1  0.82307833  0.99038767  0.42410767  1
  O  O66  1  0.84509233  0.49995767  0.40791767  1
  O  O67  1  0.00961233  0.83269067  0.42410767  1
  O  O68  1  0.65922333  0.52770267  0.52217367  1
  O  O69  1  0.16730933  0.17692167  0.42410767  1
  O  O70  1  0.50157367  0.65280233  0.59301533  1
  O  O71  1  0.86847933  0.34077667  0.52217367  1
  O  O72  1  0.12423233  0.66094867  0.47842567  1
  O  O73  1  0.50004233  0.34513467  0.40791767  1
  O  O74  1  0.83510933  0.82085267  0.57421167  1
  O  O75  1  0.33905133  0.46328367  0.47842567  1
  O  O76  1  0.98574333  0.16489067  0.57421167  1
  O  O77  1  0.15122867  0.49842633  0.59301533  1
  O  O78  1  0.17914733  0.01425667  0.57421167  1
  O  O79  1  0.47229733  0.13152067  0.52217367  1
  O  O80  1  0.80691600  0.00686200  0.68983100  1
  O  O81  1  0.34719767  0.84877133  0.59301533  1
  O  O82  1  0.99313800  0.80005400  0.68983100  1
  O  O83  1  0.19994600  0.19308400  0.68983100  1
  O  O84  1  0.46278667  0.14143633  0.64407333  1
  O  O85  1  0.67864967  0.53721333  0.64407333  1
  O  O86  1  0.32153200  0.48824100  0.74125100  1
  O  O87  1  0.85856367  0.32135033  0.64407333  1
  O  O88  1  0.20338300  0.20910100  0.81175900  1
  O  O89  1  0.48974500  0.32372100  0.75744100  1
  O  O90  1  0.51175900  0.83329100  0.74125100  1
  O  O91  1  0.67627900  0.16602400  0.75744100  1
  O  O92  1  0.32589000  0.86103600  0.85550700  1
  O  O93  1  0.83397600  0.51025500  0.75744100  1
  O  O94  1  0.16824033  0.98613567  0.92634867  1
  O  O95  1  0.53514600  0.67411000  0.85550700  1
  O  O96  1  0.79089900  0.99428200  0.81175900  1
  O  O97  1  0.16670900  0.67846800  0.74125100  1
  O  O98  1  0.50177600  0.15418600  0.90754500  1
  O  O99  1  0.00571800  0.79661700  0.81175900  1
  O  O100  1  0.65241000  0.49822400  0.90754500  1
  O  O101  1  0.81789533  0.83175967  0.92634867  1
  O  O102  1  0.84581400  0.34759000  0.90754500  1
  O  O103  1  0.13896400  0.46485400  0.85550700  1
  O  O104  1  0.47358267  0.34019533  0.02316433  1
  O  O105  1  0.01386433  0.18210467  0.92634867  1
  O  O106  1  0.65980467  0.13338733  0.02316433  1
  O  O107  1  0.86661267  0.52641733  0.02316433  1
