# generated using pymatgen
data_BaTi6O12
_symmetry_space_group_name_H-M   'P 1'
_cell_length_a   10.23521800
_cell_length_b   10.23521800
_cell_length_c   8.95835200
_cell_angle_alpha   90.00000000
_cell_angle_beta   90.00000000
_cell_angle_gamma   90.00000000
_symmetry_Int_Tables_number   1
_chemical_formula_structural   BaTi6O12
_chemical_formula_sum   'Ba4 Ti24 O48'
_cell_volume   938.47415610
_cell_formula_units_Z   4
loop_
 _symmetry_equiv_pos_site_id
 _symmetry_equiv_pos_as_xyz
  1  'x, y, z'
loop_
 _atom_site_type_symbol
 _atom_site_label
 _atom_site_symmetry_multiplicity
 _atom_site_fract_x
 _atom_site_fract_y
 _atom_site_fract_z
 _atom_site_occupancy
  Ba  Ba0  1  0.00000000  0.00000000  0.21922100  1
  Ba  Ba1  1  0.00000000  0.00000000  0.78077900  1
  Ba  Ba2  1  0.50000000  0.50000000  0.71922100  1
  Ba  Ba3  1  0.50000000  0.50000000  0.28077900  1
  Ti  Ti4  1  0.14909600  0.66639600  0.16542400  1
  Ti  Ti5  1  0.65017800  0.16990600  0.00000000  1
  Ti  Ti6  1  0.35090400  0.83360400  0.33457600  1
  Ti  Ti7  1  0.33360400  0.14909600  0.16542400  1
  Ti  Ti8  1  0.33009400  0.15017800  0.50000000  1
  Ti  Ti9  1  0.83360400  0.64909600  0.33457600  1
  Ti  Ti10  1  0.16639600  0.35090400  0.33457600  1
  Ti  Ti11  1  0.16990600  0.34982200  0.00000000  1
  Ti  Ti12  1  0.66639600  0.85090400  0.16542400  1
  Ti  Ti13  1  0.64909600  0.16639600  0.33457600  1
  Ti  Ti14  1  0.84982200  0.33009400  0.50000000  1
  Ti  Ti15  1  0.85090400  0.33360400  0.16542400  1
  Ti  Ti16  1  0.64909600  0.16639600  0.66542400  1
  Ti  Ti17  1  0.15017800  0.66990600  0.50000000  1
  Ti  Ti18  1  0.85090400  0.33360400  0.83457600  1
  Ti  Ti19  1  0.83360400  0.64909600  0.66542400  1
  Ti  Ti20  1  0.83009400  0.65017800  0.00000000  1
  Ti  Ti21  1  0.33360400  0.14909600  0.83457600  1
  Ti  Ti22  1  0.66639600  0.85090400  0.83457600  1
  Ti  Ti23  1  0.66990600  0.84982200  0.50000000  1
  Ti  Ti24  1  0.16639600  0.35090400  0.66542400  1
  Ti  Ti25  1  0.14909600  0.66639600  0.83457600  1
  Ti  Ti26  1  0.34982200  0.83009400  0.00000000  1
  Ti  Ti27  1  0.35090400  0.83360400  0.66542400  1
  O  O28  1  0.30278650  0.34787450  0.50000000  1
  O  O29  1  0.16864850  0.54093750  0.33270450  1
  O  O30  1  0.66864850  0.04093750  0.16729550  1
  O  O31  1  0.65463250  0.30063550  0.16700350  1
  O  O32  1  0.65463250  0.30063550  0.83299650  1
  O  O33  1  0.03993150  0.33611750  0.50000000  1
  O  O34  1  0.46006850  0.16388250  0.00000000  1
  O  O35  1  0.45906250  0.16864850  0.33270450  1
  O  O36  1  0.84536750  0.19936450  0.66700350  1
  O  O37  1  0.33135150  0.95906250  0.16729550  1
  O  O38  1  0.30063550  0.34536750  0.83299650  1
  O  O39  1  0.30063550  0.34536750  0.16700350  1
  O  O40  1  0.19721350  0.15212550  0.00000000  1
  O  O41  1  0.19936450  0.15463250  0.33299650  1
  O  O42  1  0.16388250  0.53993150  0.00000000  1
  O  O43  1  0.15212550  0.80278650  0.00000000  1
  O  O44  1  0.04093750  0.33135150  0.16729550  1
  O  O45  1  0.54093750  0.83135150  0.33270450  1
  O  O46  1  0.95906250  0.66864850  0.16729550  1
  O  O47  1  0.34787450  0.69721350  0.50000000  1
  O  O48  1  0.84536750  0.19936450  0.33299650  1
  O  O49  1  0.33611750  0.96006850  0.50000000  1
  O  O50  1  0.83135150  0.45906250  0.33270450  1
  O  O51  1  0.19936450  0.15463250  0.66700350  1
  O  O52  1  0.80278650  0.84787450  0.00000000  1
  O  O53  1  0.66864850  0.04093750  0.83270450  1
  O  O54  1  0.16864850  0.54093750  0.66729550  1
  O  O55  1  0.15463250  0.80063550  0.66700350  1
  O  O56  1  0.15463250  0.80063550  0.33299650  1
  O  O57  1  0.53993150  0.83611750  0.00000000  1
  O  O58  1  0.96006850  0.66388250  0.50000000  1
  O  O59  1  0.95906250  0.66864850  0.83270450  1
  O  O60  1  0.34536750  0.69936450  0.16700350  1
  O  O61  1  0.83135150  0.45906250  0.66729550  1
  O  O62  1  0.80063550  0.84536750  0.33299650  1
  O  O63  1  0.80063550  0.84536750  0.66700350  1
  O  O64  1  0.69721350  0.65212550  0.50000000  1
  O  O65  1  0.69936450  0.65463250  0.83299650  1
  O  O66  1  0.66388250  0.03993150  0.50000000  1
  O  O67  1  0.65212550  0.30278650  0.50000000  1
  O  O68  1  0.54093750  0.83135150  0.66729550  1
  O  O69  1  0.04093750  0.33135150  0.83270450  1
  O  O70  1  0.45906250  0.16864850  0.66729550  1
  O  O71  1  0.84787450  0.19721350  0.00000000  1
  O  O72  1  0.34536750  0.69936450  0.83299650  1
  O  O73  1  0.83611750  0.46006850  0.00000000  1
  O  O74  1  0.33135150  0.95906250  0.83270450  1
  O  O75  1  0.69936450  0.65463250  0.16700350  1
