# generated using pymatgen
data_LiMn7O12
_symmetry_space_group_name_H-M   'P 1'
_cell_length_a   5.21969400
_cell_length_b   8.93739600
_cell_length_c   9.98316761
_cell_angle_alpha   90.00000000
_cell_angle_beta   102.15207323
_cell_angle_gamma   90.00000000
_symmetry_Int_Tables_number   1
_chemical_formula_structural   LiMn7O12
_chemical_formula_sum   'Li2 Mn14 O24'
_cell_volume   455.28379137
_cell_formula_units_Z   2
loop_
 _symmetry_equiv_pos_site_id
 _symmetry_equiv_pos_as_xyz
  1  'x, y, z'
loop_
 _atom_site_type_symbol
 _atom_site_label
 _atom_site_symmetry_multiplicity
 _atom_site_fract_x
 _atom_site_fract_y
 _atom_site_fract_z
 _atom_site_occupancy
  Li  Li0  1  0.50000000  0.42381900  0.00000000  1
  Li  Li1  1  0.00000000  0.92381900  0.00000000  1
  Mn  Mn2  1  0.50000000  0.57838500  0.50000000  1
  Mn  Mn3  1  0.50000000  0.75373500  0.00000000  1
  Mn  Mn4  1  0.50000000  0.91421600  0.50000000  1
  Mn  Mn5  1  0.50000000  0.07743400  0.00000000  1
  Mn  Mn6  1  0.75840400  0.75968400  0.76456300  1
  Mn  Mn7  1  0.50000000  0.24502500  0.50000000  1
  Mn  Mn8  1  0.24159600  0.75968400  0.23543700  1
  Mn  Mn9  1  0.00000000  0.07838500  0.50000000  1
  Mn  Mn10  1  0.00000000  0.25373500  0.00000000  1
  Mn  Mn11  1  0.00000000  0.41421600  0.50000000  1
  Mn  Mn12  1  0.00000000  0.57743400  0.00000000  1
  Mn  Mn13  1  0.25840400  0.25968400  0.76456300  1
  Mn  Mn14  1  0.00000000  0.74502500  0.50000000  1
  Mn  Mn15  1  0.74159600  0.25968400  0.23543700  1
  O  O16  1  0.42143300  0.75921400  0.61790300  1
  O  O17  1  0.14038200  0.89851600  0.39419500  1
  O  O18  1  0.37999350  0.91110050  0.10107000  1
  O  O19  1  0.57856700  0.75921400  0.38209700  1
  O  O20  1  0.62000650  0.91110050  0.89893000  1
  O  O21  1  0.14766600  0.10687500  0.88930700  1
  O  O22  1  0.85961800  0.89851600  0.60580500  1
  O  O23  1  0.36254500  0.08437000  0.59612800  1
  O  O24  1  0.40600700  0.23409100  0.11710000  1
  O  O25  1  0.63745500  0.08437000  0.40387200  1
  O  O26  1  0.85233400  0.10687500  0.11069300  1
  O  O27  1  0.59399300  0.23409100  0.88290000  1
  O  O28  1  0.92143300  0.25921400  0.61790300  1
  O  O29  1  0.64038200  0.39851600  0.39419500  1
  O  O30  1  0.87999350  0.41110050  0.10107000  1
  O  O31  1  0.07856700  0.25921400  0.38209700  1
  O  O32  1  0.12000650  0.41110050  0.89893000  1
  O  O33  1  0.64766600  0.60687500  0.88930700  1
  O  O34  1  0.35961800  0.39851600  0.60580500  1
  O  O35  1  0.86254500  0.58437000  0.59612800  1
  O  O36  1  0.90600700  0.73409100  0.11710000  1
  O  O37  1  0.13745500  0.58437000  0.40387200  1
  O  O38  1  0.35233400  0.60687500  0.11069300  1
  O  O39  1  0.09399300  0.73409100  0.88290000  1
