# generated using pymatgen
data_Mn2Co(PO4)3
_symmetry_space_group_name_H-M   'P 1'
_cell_length_a   8.62191833
_cell_length_b   8.62191833
_cell_length_c   20.68836280
_cell_angle_alpha   90.00000000
_cell_angle_beta   90.00000000
_cell_angle_gamma   120.00000000
_symmetry_Int_Tables_number   1
_chemical_formula_structural   Mn2Co(PO4)3
_chemical_formula_sum   'Mn12 Co6 P18 O72'
_cell_volume   1331.87836533
_cell_formula_units_Z   6
loop_
 _symmetry_equiv_pos_site_id
 _symmetry_equiv_pos_as_xyz
  1  'x, y, z'
loop_
 _atom_site_type_symbol
 _atom_site_label
 _atom_site_symmetry_multiplicity
 _atom_site_fract_x
 _atom_site_fract_y
 _atom_site_fract_z
 _atom_site_occupancy
  Mn  Mn0  1  0.33333333  0.66666667  0.30912567  1
  Mn  Mn1  1  0.33333333  0.66666667  0.80912567  1
  Mn  Mn2  1  0.33333333  0.66666667  0.52420767  1
  Mn  Mn3  1  0.33333333  0.66666667  0.02420767  1
  Mn  Mn4  1  0.00000000  0.00000000  0.64245900  1
  Mn  Mn5  1  0.00000000  0.00000000  0.14245900  1
  Mn  Mn6  1  1.00000000  0.00000000  0.85754100  1
  Mn  Mn7  1  0.00000000  0.00000000  0.35754100  1
  Mn  Mn8  1  0.66666667  0.33333333  0.97579233  1
  Mn  Mn9  1  0.66666667  0.33333333  0.47579233  1
  Mn  Mn10  1  0.66666667  0.33333333  0.19087433  1
  Mn  Mn11  1  0.66666667  0.33333333  0.69087433  1
  Co  Co12  1  0.00000000  0.00000000  0.00000000  1
  Co  Co13  1  0.33333333  0.66666667  0.16666667  1
  Co  Co14  1  0.66666667  0.33333333  0.33333333  1
  Co  Co15  1  0.00000000  0.00000000  0.50000000  1
  Co  Co16  1  0.33333333  0.66666667  0.66666667  1
  Co  Co17  1  0.66666667  0.33333333  0.83333333  1
  P  P18  1  0.70765700  0.70765700  0.25000000  1
  P  P19  1  0.29234300  0.00000000  0.25000000  1
  P  P20  1  0.00000000  0.29234300  0.25000000  1
  P  P21  1  0.66666667  0.04099033  0.08333333  1
  P  P22  1  0.37432367  0.33333333  0.08333333  1
  P  P23  1  0.95900967  0.62567633  0.08333333  1
  P  P24  1  0.37432367  0.04099033  0.58333333  1
  P  P25  1  0.95900967  0.33333333  0.58333333  1
  P  P26  1  0.66666667  0.62567633  0.58333333  1
  P  P27  1  0.33333333  0.37432367  0.41666667  1
  P  P28  1  0.04099033  0.66666667  0.41666667  1
  P  P29  1  0.62567633  0.95900967  0.41666667  1
  P  P30  1  0.04099033  0.37432367  0.91666667  1
  P  P31  1  0.62567633  0.66666667  0.91666667  1
  P  P32  1  0.33333333  0.95900967  0.91666667  1
  P  P33  1  0.00000000  0.70765700  0.75000000  1
  P  P34  1  0.70765700  0.00000000  0.75000000  1
  P  P35  1  0.29234300  0.29234300  0.75000000  1
  O  O36  1  0.53194267  0.66871233  0.97891333  1
  O  O37  1  0.33128767  0.86323033  0.97891333  1
  O  O38  1  0.13676967  0.46805733  0.97891333  1
  O  O39  1  0.68516733  0.51629467  0.25800767  1
  O  O40  1  0.80139067  0.80343633  0.18775333  1
  O  O41  1  0.51629467  0.68516733  0.24199233  1
  O  O42  1  0.48370533  0.16887267  0.25800767  1
  O  O43  1  0.31483267  0.83112733  0.24199233  1
  O  O44  1  0.66462100  0.13472400  0.14558000  1
  O  O45  1  0.16887267  0.48370533  0.24199233  1
  O  O46  1  0.83553933  0.01850067  0.07532567  1
  O  O47  1  0.47010300  0.33537900  0.14558000  1
  O  O48  1  0.19656367  0.99795433  0.18775333  1
  O  O49  1  0.83112733  0.31483267  0.25800767  1
  O  O50  1  0.49779400  0.84962800  0.09134100  1
  O  O51  1  0.00204567  0.19860933  0.18775333  1
  O  O52  1  0.35183400  0.50220600  0.09134100  1
  O  O53  1  0.18296133  0.16446067  0.07532567  1
  O  O54  1  0.15037200  0.64816600  0.09134100  1
  O  O55  1  0.86527600  0.52989700  0.14558000  1
  O  O56  1  0.98149933  0.81703867  0.07532567  1
  O  O57  1  0.52989700  0.86527600  0.35442000  1
  O  O58  1  0.33537900  0.47010300  0.35442000  1
  O  O59  1  0.13472400  0.66462100  0.35442000  1
  O  O60  1  0.19860933  0.00204567  0.31224667  1
  O  O61  1  0.99795433  0.19656367  0.31224667  1
  O  O62  1  0.80343633  0.80139067  0.31224667  1
  O  O63  1  0.35183400  0.84962800  0.59134100  1
  O  O64  1  0.46805733  0.13676967  0.52108667  1
  O  O65  1  0.18296133  0.01850067  0.57532567  1
  O  O66  1  0.15037200  0.50220600  0.59134100  1
  O  O67  1  0.98149933  0.16446067  0.57532567  1
  O  O68  1  0.33128767  0.46805733  0.47891333  1
  O  O69  1  0.83553933  0.81703867  0.57532567  1
  O  O70  1  0.50220600  0.35183400  0.40865900  1
  O  O71  1  0.13676967  0.66871233  0.47891333  1
  O  O72  1  0.86323033  0.33128767  0.52108667  1
  O  O73  1  0.49779400  0.64816600  0.59134100  1
  O  O74  1  0.16446067  0.18296133  0.42467433  1
  O  O75  1  0.66871233  0.53194267  0.52108667  1
  O  O76  1  0.01850067  0.83553933  0.42467433  1
  O  O77  1  0.84962800  0.49779400  0.40865900  1
  O  O78  1  0.81703867  0.98149933  0.42467433  1
  O  O79  1  0.53194267  0.86323033  0.47891333  1
  O  O80  1  0.64816600  0.15037200  0.40865900  1
  O  O81  1  0.19656367  0.19860933  0.68775333  1
  O  O82  1  0.00204567  0.80343633  0.68775333  1
  O  O83  1  0.80139067  0.99795433  0.68775333  1
  O  O84  1  0.86527600  0.33537900  0.64558000  1
  O  O85  1  0.66462100  0.52989700  0.64558000  1
  O  O86  1  0.47010300  0.13472400  0.64558000  1
  O  O87  1  0.01850067  0.18296133  0.92467433  1
  O  O88  1  0.13472400  0.47010300  0.85442000  1
  O  O89  1  0.84962800  0.35183400  0.90865900  1
  O  O90  1  0.81703867  0.83553933  0.92467433  1
  O  O91  1  0.64816600  0.49779400  0.90865900  1
  O  O92  1  0.99795433  0.80139067  0.81224667  1
  O  O93  1  0.50220600  0.15037200  0.90865900  1
  O  O94  1  0.16887267  0.68516733  0.74199233  1
  O  O95  1  0.80343633  0.00204567  0.81224667  1
  O  O96  1  0.52989700  0.66462100  0.85442000  1
  O  O97  1  0.16446067  0.98149933  0.92467433  1
  O  O98  1  0.83112733  0.51629467  0.75800767  1
  O  O99  1  0.33537900  0.86527600  0.85442000  1
  O  O100  1  0.68516733  0.16887267  0.75800767  1
  O  O101  1  0.51629467  0.83112733  0.74199233  1
  O  O102  1  0.48370533  0.31483267  0.75800767  1
  O  O103  1  0.19860933  0.19656367  0.81224667  1
  O  O104  1  0.31483267  0.48370533  0.74199233  1
  O  O105  1  0.86323033  0.53194267  0.02108667  1
  O  O106  1  0.66871233  0.13676967  0.02108667  1
  O  O107  1  0.46805733  0.33128767  0.02108667  1
