# generated using pymatgen
data_MnV4O12
_symmetry_space_group_name_H-M   'P 1'
_cell_length_a   4.94210117
_cell_length_b   5.32463317
_cell_length_c   7.45118344
_cell_angle_alpha   83.71388652
_cell_angle_beta   88.97105300
_cell_angle_gamma   88.99014102
_symmetry_Int_Tables_number   1
_chemical_formula_structural   MnV4O12
_chemical_formula_sum   'Mn1 V4 O12'
_cell_volume   194.84244339
_cell_formula_units_Z   1
loop_
 _symmetry_equiv_pos_site_id
 _symmetry_equiv_pos_as_xyz
  1  'x, y, z'
loop_
 _atom_site_type_symbol
 _atom_site_label
 _atom_site_symmetry_multiplicity
 _atom_site_fract_x
 _atom_site_fract_y
 _atom_site_fract_z
 _atom_site_occupancy
  Mn  Mn0  1  0.99909700  0.39427000  0.70735100  1
  V  V1  1  0.97768500  0.98713000  0.01445600  1
  V  V2  1  0.51500200  0.52502700  0.48143600  1
  V  V3  1  0.01186500  0.99527800  0.48746500  1
  V  V4  1  0.47241100  0.49871200  0.99361800  1
  O  O5  1  0.71883900  0.24628000  0.58418500  1
  O  O6  1  0.89425200  0.03945000  0.27373800  1
  O  O7  1  0.69318400  0.84055600  0.97322000  1
  O  O8  1  0.82573400  0.70841200  0.58405700  1
  O  O9  1  0.19693400  0.73759600  0.06632600  1
  O  O10  1  0.60601800  0.52214800  0.26818800  1
  O  O11  1  0.33720600  0.53451000  0.77145000  1
  O  O12  1  0.81195300  0.35964700  0.93522300  1
  O  O13  1  0.19647100  0.34679400  0.48515100  1
  O  O14  1  0.31557200  0.23900800  0.07814500  1
  O  O15  1  0.10852500  0.06222500  0.77373400  1
  O  O16  1  0.31925300  0.84435800  0.46295700  1
