# generated using pymatgen
data_Li5V5(FeO6)2
_symmetry_space_group_name_H-M   'P 1'
_cell_length_a   5.24376600
_cell_length_b   9.01683600
_cell_length_c   9.91141240
_cell_angle_alpha   90.00000000
_cell_angle_beta   99.78021595
_cell_angle_gamma   90.00000000
_symmetry_Int_Tables_number   1
_chemical_formula_structural   Li5V5(FeO6)2
_chemical_formula_sum   'Li10 V10 Fe4 O24'
_cell_volume   461.82233824
_cell_formula_units_Z   2
loop_
 _symmetry_equiv_pos_site_id
 _symmetry_equiv_pos_as_xyz
  1  'x, y, z'
loop_
 _atom_site_type_symbol
 _atom_site_label
 _atom_site_symmetry_multiplicity
 _atom_site_fract_x
 _atom_site_fract_y
 _atom_site_fract_z
 _atom_site_occupancy
  Li  Li0  1  0.25132350  0.91476350  0.26259100  1
  Li  Li1  1  0.23622500  0.08127900  0.73582500  1
  Li  Li2  1  0.74867650  0.91476350  0.73740900  1
  Li  Li3  1  0.76377500  0.08127900  0.26417500  1
  Li  Li4  1  0.50000000  0.41655100  0.50000000  1
  Li  Li5  1  0.75132350  0.41476350  0.26259100  1
  Li  Li6  1  0.73622500  0.58127900  0.73582500  1
  Li  Li7  1  0.24867650  0.41476350  0.73740900  1
  Li  Li8  1  0.26377500  0.58127900  0.26417500  1
  Li  Li9  1  0.00000000  0.91655100  0.50000000  1
  V  V10  1  0.74443100  0.25512200  0.74256900  1
  V  V11  1  0.25556900  0.25512200  0.25743100  1
  V  V12  1  0.50000000  0.92307000  0.00000000  1
  V  V13  1  0.50000000  0.07867900  0.50000000  1
  V  V14  1  0.50000000  0.58050200  0.00000000  1
  V  V15  1  0.24443100  0.75512200  0.74256900  1
  V  V16  1  0.75556900  0.75512200  0.25743100  1
  V  V17  1  0.00000000  0.42307000  0.00000000  1
  V  V18  1  0.00000000  0.57867900  0.50000000  1
  V  V19  1  0.00000000  0.08050200  0.00000000  1
  Fe  Fe20  1  0.50000000  0.74813600  0.50000000  1
  Fe  Fe21  1  0.50000000  0.25086700  0.00000000  1
  Fe  Fe22  1  0.00000000  0.24813600  0.50000000  1
  Fe  Fe23  1  0.00000000  0.75086700  0.00000000  1
  O  O24  1  0.85337800  0.08889700  0.62332500  1
  O  O25  1  0.14662200  0.08889700  0.37667500  1
  O  O26  1  0.39132950  0.75237950  0.11780100  1
  O  O27  1  0.60867050  0.75237950  0.88219900  1
  O  O28  1  0.37427900  0.91299100  0.62586300  1
  O  O29  1  0.62572100  0.91299100  0.37413700  1
  O  O30  1  0.35292400  0.08365600  0.11942100  1
  O  O31  1  0.64707600  0.08365600  0.88057900  1
  O  O32  1  0.39595850  0.24115650  0.62972600  1
  O  O33  1  0.60404150  0.24115650  0.37027400  1
  O  O34  1  0.85721850  0.92085150  0.11998300  1
  O  O35  1  0.14278150  0.92085150  0.88001700  1
  O  O36  1  0.35337800  0.58889700  0.62332500  1
  O  O37  1  0.64662200  0.58889700  0.37667500  1
  O  O38  1  0.89132950  0.25237950  0.11780100  1
  O  O39  1  0.10867050  0.25237950  0.88219900  1
  O  O40  1  0.87427900  0.41299100  0.62586300  1
  O  O41  1  0.12572100  0.41299100  0.37413700  1
  O  O42  1  0.85292400  0.58365600  0.11942100  1
  O  O43  1  0.14707600  0.58365600  0.88057900  1
  O  O44  1  0.89595850  0.74115650  0.62972600  1
  O  O45  1  0.10404150  0.74115650  0.37027400  1
  O  O46  1  0.35721850  0.42085150  0.11998300  1
  O  O47  1  0.64278150  0.42085150  0.88001700  1
