# generated using pymatgen
data_NaNb14O36
_symmetry_space_group_name_H-M   'P 1'
_cell_length_a   3.88386200
_cell_length_b   14.50808600
_cell_length_c   26.73157800
_cell_angle_alpha   90.00000000
_cell_angle_beta   90.00000000
_cell_angle_gamma   90.00000000
_symmetry_Int_Tables_number   1
_chemical_formula_structural   NaNb14O36
_chemical_formula_sum   'Na2 Nb28 O72'
_cell_volume   1506.25502267
_cell_formula_units_Z   2
loop_
 _symmetry_equiv_pos_site_id
 _symmetry_equiv_pos_as_xyz
  1  'x, y, z'
loop_
 _atom_site_type_symbol
 _atom_site_label
 _atom_site_symmetry_multiplicity
 _atom_site_fract_x
 _atom_site_fract_y
 _atom_site_fract_z
 _atom_site_occupancy
  Na  Na0  1  0.00000000  0.00000000  0.00000000  1
  Na  Na1  1  0.50000000  0.50000000  0.50000000  1
  Nb  Nb2  1  0.50000000  0.88032950  0.89799650  1
  Nb  Nb3  1  0.00000000  0.38032950  0.60200350  1
  Nb  Nb4  1  0.50000000  0.11967050  0.89799650  1
  Nb  Nb5  1  0.00000000  0.61967050  0.60200350  1
  Nb  Nb6  1  0.50000000  0.69444700  0.79290800  1
  Nb  Nb7  1  0.00000000  0.19444700  0.70709200  1
  Nb  Nb8  1  0.50000000  0.30555300  0.79290800  1
  Nb  Nb9  1  0.00000000  0.80555300  0.70709200  1
  Nb  Nb10  1  0.50000000  0.68291500  0.00000000  1
  Nb  Nb11  1  0.50000000  0.31708500  0.00000000  1
  Nb  Nb12  1  0.00000000  0.00000000  0.81179600  1
  Nb  Nb13  1  0.50000000  0.50000000  0.68820400  1
  Nb  Nb14  1  0.00000000  0.00000000  0.60557000  1
  Nb  Nb15  1  0.50000000  0.50000000  0.89443000  1
  Nb  Nb16  1  0.00000000  0.38032950  0.39799650  1
  Nb  Nb17  1  0.50000000  0.88032950  0.10200350  1
  Nb  Nb18  1  0.00000000  0.61967050  0.39799650  1
  Nb  Nb19  1  0.50000000  0.11967050  0.10200350  1
  Nb  Nb20  1  0.00000000  0.19444700  0.29290800  1
  Nb  Nb21  1  0.50000000  0.69444700  0.20709200  1
  Nb  Nb22  1  0.00000000  0.80555300  0.29290800  1
  Nb  Nb23  1  0.50000000  0.30555300  0.20709200  1
  Nb  Nb24  1  0.00000000  0.18291500  0.50000000  1
  Nb  Nb25  1  0.00000000  0.81708500  0.50000000  1
  Nb  Nb26  1  0.50000000  0.50000000  0.31179600  1
  Nb  Nb27  1  0.00000000  0.00000000  0.18820400  1
  Nb  Nb28  1  0.50000000  0.50000000  0.10557000  1
  Nb  Nb29  1  0.00000000  0.00000000  0.39443000  1
  O  O30  1  0.50000000  0.79833950  0.94876050  1
  O  O31  1  0.00000000  0.29833950  0.55123950  1
  O  O32  1  0.50000000  0.20166050  0.94876050  1
  O  O33  1  0.00000000  0.70166050  0.55123950  1
  O  O34  1  0.50000000  0.59858100  0.94480600  1
  O  O35  1  0.00000000  0.09858100  0.55519400  1
  O  O36  1  0.50000000  0.40141900  0.94480600  1
  O  O37  1  0.00000000  0.90141900  0.55519400  1
  O  O38  1  0.50000000  0.79269100  0.83967200  1
  O  O39  1  0.00000000  0.29269100  0.66032800  1
  O  O40  1  0.50000000  0.20730900  0.83967200  1
  O  O41  1  0.00000000  0.70730900  0.66032800  1
  O  O42  1  0.50000000  0.59858550  0.83771850  1
  O  O43  1  0.00000000  0.09858550  0.66228150  1
  O  O44  1  0.50000000  0.40141450  0.83771850  1
  O  O45  1  0.00000000  0.90141450  0.66228150  1
  O  O46  1  0.50000000  0.59636900  0.73152800  1
  O  O47  1  0.00000000  0.09636900  0.76847200  1
  O  O48  1  0.50000000  0.40363100  0.73152800  1
  O  O49  1  0.00000000  0.90363100  0.76847200  1
  O  O50  1  0.00000000  0.90235600  0.88287800  1
  O  O51  1  0.50000000  0.40235600  0.61712200  1
  O  O52  1  0.00000000  0.09764400  0.88287800  1
  O  O53  1  0.50000000  0.59764400  0.61712200  1
  O  O54  1  0.00000000  0.70781600  0.77423900  1
  O  O55  1  0.50000000  0.20781600  0.72576100  1
  O  O56  1  0.00000000  0.29218400  0.77423900  1
  O  O57  1  0.50000000  0.79218400  0.72576100  1
  O  O58  1  0.50000000  0.00000000  0.93791000  1
  O  O59  1  0.00000000  0.50000000  0.56209000  1
  O  O60  1  0.50000000  0.00000000  0.83585500  1
  O  O61  1  0.00000000  0.50000000  0.66414500  1
  O  O62  1  0.50000000  0.00000000  0.61408100  1
  O  O63  1  0.00000000  0.50000000  0.88591900  1
  O  O64  1  0.00000000  0.70174800  0.00000000  1
  O  O65  1  0.00000000  0.29825200  0.00000000  1
  O  O66  1  0.00000000  0.29833950  0.44876050  1
  O  O67  1  0.50000000  0.79833950  0.05123950  1
  O  O68  1  0.00000000  0.70166050  0.44876050  1
  O  O69  1  0.50000000  0.20166050  0.05123950  1
  O  O70  1  0.00000000  0.09858100  0.44480600  1
  O  O71  1  0.50000000  0.59858100  0.05519400  1
  O  O72  1  0.00000000  0.90141900  0.44480600  1
  O  O73  1  0.50000000  0.40141900  0.05519400  1
  O  O74  1  0.00000000  0.29269100  0.33967200  1
  O  O75  1  0.50000000  0.79269100  0.16032800  1
  O  O76  1  0.00000000  0.70730900  0.33967200  1
  O  O77  1  0.50000000  0.20730900  0.16032800  1
  O  O78  1  0.00000000  0.09858550  0.33771850  1
  O  O79  1  0.50000000  0.59858550  0.16228150  1
  O  O80  1  0.00000000  0.90141450  0.33771850  1
  O  O81  1  0.50000000  0.40141450  0.16228150  1
  O  O82  1  0.00000000  0.09636900  0.23152800  1
  O  O83  1  0.50000000  0.59636900  0.26847200  1
  O  O84  1  0.00000000  0.90363100  0.23152800  1
  O  O85  1  0.50000000  0.40363100  0.26847200  1
  O  O86  1  0.50000000  0.40235600  0.38287800  1
  O  O87  1  0.00000000  0.90235600  0.11712200  1
  O  O88  1  0.50000000  0.59764400  0.38287800  1
  O  O89  1  0.00000000  0.09764400  0.11712200  1
  O  O90  1  0.50000000  0.20781600  0.27423900  1
  O  O91  1  0.00000000  0.70781600  0.22576100  1
  O  O92  1  0.50000000  0.79218400  0.27423900  1
  O  O93  1  0.00000000  0.29218400  0.22576100  1
  O  O94  1  0.00000000  0.50000000  0.43791000  1
  O  O95  1  0.50000000  0.00000000  0.06209000  1
  O  O96  1  0.00000000  0.50000000  0.33585500  1
  O  O97  1  0.50000000  0.00000000  0.16414500  1
  O  O98  1  0.00000000  0.50000000  0.11408100  1
  O  O99  1  0.50000000  0.00000000  0.38591900  1
  O  O100  1  0.50000000  0.20174800  0.50000000  1
  O  O101  1  0.50000000  0.79825200  0.50000000  1
