# generated using pymatgen
data_Mn6OF11
_symmetry_space_group_name_H-M   'P 1'
_cell_length_a   9.52715600
_cell_length_b   7.01718400
_cell_length_c   7.62695598
_cell_angle_alpha   90.00000000
_cell_angle_beta   109.94676172
_cell_angle_gamma   90.00000000
_symmetry_Int_Tables_number   1
_chemical_formula_structural   Mn6OF11
_chemical_formula_sum   'Mn12 O2 F22'
_cell_volume   479.30268419
_cell_formula_units_Z   2
loop_
 _symmetry_equiv_pos_site_id
 _symmetry_equiv_pos_as_xyz
  1  'x, y, z'
loop_
 _atom_site_type_symbol
 _atom_site_label
 _atom_site_symmetry_multiplicity
 _atom_site_fract_x
 _atom_site_fract_y
 _atom_site_fract_z
 _atom_site_occupancy
  Mn  Mn0  1  0.16709000  0.50000000  0.16693500  1
  Mn  Mn1  1  0.83661800  0.50000000  0.35239300  1
  Mn  Mn2  1  0.15269200  0.50000000  0.67143600  1
  Mn  Mn3  1  0.84014000  0.50000000  0.82102200  1
  Mn  Mn4  1  0.49748000  0.50000000  0.50111400  1
  Mn  Mn5  1  0.50380500  0.50000000  0.99466300  1
  Mn  Mn6  1  0.66709000  0.00000000  0.16693500  1
  Mn  Mn7  1  0.33661800  0.00000000  0.35239300  1
  Mn  Mn8  1  0.65269200  0.00000000  0.67143600  1
  Mn  Mn9  1  0.34014000  0.00000000  0.82102200  1
  Mn  Mn10  1  0.99748000  0.00000000  0.50111400  1
  Mn  Mn11  1  0.00380500  0.00000000  0.99466300  1
  O  O12  1  0.93143600  0.50000000  0.64008000  1
  O  O13  1  0.43143600  0.00000000  0.64008000  1
  F  F14  1  0.83370300  0.19635100  0.33035500  1
  F  F15  1  0.16988500  0.19142900  0.67095500  1
  F  F16  1  0.38880300  0.50000000  0.69986100  1
  F  F17  1  0.06651400  0.50000000  0.37262200  1
  F  F18  1  0.74123100  0.50000000  0.02796600  1
  F  F19  1  0.60039400  0.50000000  0.29222300  1
  F  F20  1  0.27086700  0.50000000  0.96585300  1
  F  F21  1  0.16988500  0.80857100  0.67095500  1
  F  F22  1  0.83370300  0.80364900  0.33035500  1
  F  F23  1  0.99787600  0.30626600  0.99560600  1
  F  F24  1  0.99787600  0.69373400  0.99560600  1
  F  F25  1  0.33370300  0.69635100  0.33035500  1
  F  F26  1  0.66988500  0.69142900  0.67095500  1
  F  F27  1  0.88880300  0.00000000  0.69986100  1
  F  F28  1  0.56651400  0.00000000  0.37262200  1
  F  F29  1  0.24123100  0.00000000  0.02796600  1
  F  F30  1  0.10039400  0.00000000  0.29222300  1
  F  F31  1  0.77086700  0.00000000  0.96585300  1
  F  F32  1  0.66988500  0.30857100  0.67095500  1
  F  F33  1  0.33370300  0.30364900  0.33035500  1
  F  F34  1  0.49787600  0.80626600  0.99560600  1
  F  F35  1  0.49787600  0.19373400  0.99560600  1
