# generated using pymatgen
data_Cu8O7
_symmetry_space_group_name_H-M   'P 1'
_cell_length_a   11.48718800
_cell_length_b   5.88404800
_cell_length_c   5.89984416
_cell_angle_alpha   90.00000000
_cell_angle_beta   120.07599029
_cell_angle_gamma   90.00000000
_symmetry_Int_Tables_number   1
_chemical_formula_structural   Cu8O7
_chemical_formula_sum   'Cu16 O14'
_cell_volume   345.08656067
_cell_formula_units_Z   2
loop_
 _symmetry_equiv_pos_site_id
 _symmetry_equiv_pos_as_xyz
  1  'x, y, z'
loop_
 _atom_site_type_symbol
 _atom_site_label
 _atom_site_symmetry_multiplicity
 _atom_site_fract_x
 _atom_site_fract_y
 _atom_site_fract_z
 _atom_site_occupancy
  Cu  Cu0  1  0.00223600  0.00000000  0.99206000  1
  Cu  Cu1  1  0.00914800  0.50000000  0.02853300  1
  Cu  Cu2  1  0.25411600  0.75346400  0.00082700  1
  Cu  Cu3  1  0.25411600  0.24653600  0.00082700  1
  Cu  Cu4  1  0.24434100  0.50000000  0.50086800  1
  Cu  Cu5  1  0.26531100  0.00000000  0.50012600  1
  Cu  Cu6  1  0.01124950  0.74708250  0.48514800  1
  Cu  Cu7  1  0.01124950  0.25291750  0.48514800  1
  Cu  Cu8  1  0.50223600  0.50000000  0.99206000  1
  Cu  Cu9  1  0.50914800  0.00000000  0.02853300  1
  Cu  Cu10  1  0.75411600  0.25346400  0.00082700  1
  Cu  Cu11  1  0.75411600  0.74653600  0.00082700  1
  Cu  Cu12  1  0.74434100  0.00000000  0.50086800  1
  Cu  Cu13  1  0.76531100  0.50000000  0.50012600  1
  Cu  Cu14  1  0.51124950  0.24708250  0.48514800  1
  Cu  Cu15  1  0.51124950  0.75291750  0.48514800  1
  O  O16  1  0.31093200  0.50000000  0.87010500  1
  O  O17  1  0.32123100  0.00000000  0.87009300  1
  O  O18  1  0.19393000  0.00000000  0.12626000  1
  O  O19  1  0.07176500  0.00000000  0.36951400  1
  O  O20  1  0.19179100  0.50000000  0.14190400  1
  O  O21  1  0.44608300  0.50000000  0.63250600  1
  O  O22  1  0.45236500  0.00000000  0.59455700  1
  O  O23  1  0.81093200  0.00000000  0.87010500  1
  O  O24  1  0.82123100  0.50000000  0.87009300  1
  O  O25  1  0.69393000  0.50000000  0.12626000  1
  O  O26  1  0.57176500  0.50000000  0.36951400  1
  O  O27  1  0.69179100  0.00000000  0.14190400  1
  O  O28  1  0.94608300  0.00000000  0.63250600  1
  O  O29  1  0.95236500  0.50000000  0.59455700  1
