# generated using pymatgen
data_Li2V(OF)2
_symmetry_space_group_name_H-M   'P 1'
_cell_length_a   6.31989080
_cell_length_b   3.87065051
_cell_length_c   6.62717437
_cell_angle_alpha   90.00000000
_cell_angle_beta   113.80997326
_cell_angle_gamma   90.00000000
_symmetry_Int_Tables_number   1
_chemical_formula_structural   Li2V(OF)2
_chemical_formula_sum   'Li4 V2 O4 F4'
_cell_volume   148.31686346
_cell_formula_units_Z   2
loop_
 _symmetry_equiv_pos_site_id
 _symmetry_equiv_pos_as_xyz
  1  'x, y, z'
loop_
 _atom_site_type_symbol
 _atom_site_label
 _atom_site_symmetry_multiplicity
 _atom_site_fract_x
 _atom_site_fract_y
 _atom_site_fract_z
 _atom_site_occupancy
  Li  Li0  1  0.28327725  0.25000000  0.72940650  1
  Li  Li1  1  0.71672275  0.75000000  0.27059350  1
  Li  Li2  1  0.09234475  0.75000000  0.89222300  1
  Li  Li3  1  0.90765525  0.25000000  0.10777700  1
  V  V4  1  0.70594475  0.25000000  0.61871300  1
  V  V5  1  0.29405525  0.75000000  0.38128700  1
  O  O6  1  0.64572925  0.75000000  0.56111500  1
  O  O7  1  0.35427075  0.25000000  0.43888500  1
  O  O8  1  0.99193775  0.25000000  0.81165400  1
  O  O9  1  0.00806225  0.75000000  0.18834600  1
  F  F10  1  0.22419925  0.75000000  0.65107650  1
  F  F11  1  0.77580075  0.25000000  0.34892350  1
  F  F12  1  0.38857025  0.75000000  0.12723450  1
  F  F13  1  0.61142975  0.25000000  0.87276550  1
