# generated using pymatgen
data_LiCo3O4
_symmetry_space_group_name_H-M   'P 1'
_cell_length_a   6.06889600
_cell_length_b   8.39473600
_cell_length_c   2.99422200
_cell_angle_alpha   90.00000000
_cell_angle_beta   90.00000000
_cell_angle_gamma   90.00000000
_symmetry_Int_Tables_number   1
_chemical_formula_structural   LiCo3O4
_chemical_formula_sum   'Li2 Co6 O8'
_cell_volume   152.54596870
_cell_formula_units_Z   2
loop_
 _symmetry_equiv_pos_site_id
 _symmetry_equiv_pos_as_xyz
  1  'x, y, z'
loop_
 _atom_site_type_symbol
 _atom_site_label
 _atom_site_symmetry_multiplicity
 _atom_site_fract_x
 _atom_site_fract_y
 _atom_site_fract_z
 _atom_site_occupancy
  Li  Li0  1  0.50000000  0.00000000  0.50000000  1
  Li  Li1  1  0.00000000  0.50000000  0.50000000  1
  Co  Co2  1  0.25000000  0.75000000  0.00000000  1
  Co  Co3  1  0.00000000  0.00000000  0.50000000  1
  Co  Co4  1  0.25000000  0.25000000  0.00000000  1
  Co  Co5  1  0.75000000  0.25000000  0.00000000  1
  Co  Co6  1  0.50000000  0.50000000  0.50000000  1
  Co  Co7  1  0.75000000  0.75000000  0.00000000  1
  O  O8  1  0.76657600  0.00000000  0.00000000  1
  O  O9  1  0.50000000  0.25748800  0.50000000  1
  O  O10  1  0.50000000  0.74251200  0.50000000  1
  O  O11  1  0.23342400  0.00000000  0.00000000  1
  O  O12  1  0.26657600  0.50000000  0.00000000  1
  O  O13  1  0.00000000  0.75748800  0.50000000  1
  O  O14  1  0.00000000  0.24251200  0.50000000  1
  O  O15  1  0.73342400  0.50000000  0.00000000  1
