# generated using pymatgen
data_Ti3V2Sb(PO4)6
_symmetry_space_group_name_H-M   'P 1'
_cell_length_a   8.79342013
_cell_length_b   8.79342013
_cell_length_c   21.15160148
_cell_angle_alpha   90.00000000
_cell_angle_beta   90.00000000
_cell_angle_gamma   120.00000000
_symmetry_Int_Tables_number   1
_chemical_formula_structural   Ti3V2Sb(PO4)6
_chemical_formula_sum   'Ti9 V6 Sb3 P18 O72'
_cell_volume   1416.41179195
_cell_formula_units_Z   3
loop_
 _symmetry_equiv_pos_site_id
 _symmetry_equiv_pos_as_xyz
  1  'x, y, z'
loop_
 _atom_site_type_symbol
 _atom_site_label
 _atom_site_symmetry_multiplicity
 _atom_site_fract_x
 _atom_site_fract_y
 _atom_site_fract_z
 _atom_site_occupancy
  Ti  Ti0  1  0.33333333  0.66666667  0.31325067  1
  Ti  Ti1  1  0.33333333  0.66666667  0.52195767  1
  Ti  Ti2  1  0.33333333  0.66666667  0.02152567  1
  Ti  Ti3  1  0.00000000  0.00000000  0.64658400  1
  Ti  Ti4  1  0.00000000  0.00000000  0.85529100  1
  Ti  Ti5  1  0.00000000  0.00000000  0.35485900  1
  Ti  Ti6  1  0.66666667  0.33333333  0.97991733  1
  Ti  Ti7  1  0.66666667  0.33333333  0.18862433  1
  Ti  Ti8  1  0.66666667  0.33333333  0.68819233  1
  V  V9  1  0.33333333  0.66666667  0.66487967  1
  V  V10  1  0.33333333  0.66666667  0.16828067  1
  V  V11  1  0.00000000  0.00000000  0.99821300  1
  V  V12  1  0.00000000  0.00000000  0.50161400  1
  V  V13  1  0.66666667  0.33333333  0.33154633  1
  V  V14  1  0.66666667  0.33333333  0.83494733  1
  Sb  Sb15  1  0.33333333  0.66666667  0.81397567  1
  Sb  Sb16  1  0.00000000  0.00000000  0.14730900  1
  Sb  Sb17  1  0.66666667  0.33333333  0.48064233  1
  P  P18  1  0.69573467  0.69534033  0.25215033  1
  P  P19  1  0.30465967  0.00039433  0.25215033  1
  P  P20  1  0.99960567  0.30426533  0.25215033  1
  P  P21  1  0.65764833  0.03817367  0.08216467  1
  P  P22  1  0.38052533  0.34235167  0.08216467  1
  P  P23  1  0.96182633  0.61947467  0.08216467  1
  P  P24  1  0.36240133  0.02867367  0.58548367  1
  P  P25  1  0.97132633  0.33372767  0.58548367  1
  P  P26  1  0.66627233  0.63759867  0.58548367  1
  P  P27  1  0.32431500  0.37150700  0.41549800  1
  P  P28  1  0.04719200  0.67568500  0.41549800  1
  P  P29  1  0.62849300  0.95280800  0.41549800  1
  P  P30  1  0.02906800  0.36200700  0.91881700  1
  P  P31  1  0.63799300  0.66706100  0.91881700  1
  P  P32  1  0.33293900  0.97093200  0.91881700  1
  P  P33  1  0.99098167  0.70484033  0.74883133  1
  P  P34  1  0.71385867  0.00901833  0.74883133  1
  P  P35  1  0.29515967  0.28614133  0.74883133  1
  O  O36  1  0.52511700  0.66585900  0.97519100  1
  O  O37  1  0.33414100  0.85925800  0.97519100  1
  O  O38  1  0.14074200  0.47488300  0.97519100  1
  O  O39  1  0.67795567  0.51058933  0.25870833  1
  O  O40  1  0.77723733  0.77740267  0.18870067  1
  O  O41  1  0.50744833  0.67198467  0.24886867  1
  O  O42  1  0.48941067  0.16736633  0.25870833  1
  O  O43  1  0.32801533  0.83546367  0.24886867  1
  O  O44  1  0.66964500  0.14171200  0.14290600  1
  O  O45  1  0.16453633  0.49255167  0.24886867  1
  O  O46  1  0.82167900  0.02111600  0.06887400  1
  O  O47  1  0.47206700  0.33035500  0.14290600  1
  O  O48  1  0.22259733  0.99983467  0.18870067  1
  O  O49  1  0.83263367  0.32204433  0.25870833  1
  O  O50  1  0.49233500  0.85133600  0.08976600  1
  O  O51  1  0.00016533  0.22276267  0.18870067  1
  O  O52  1  0.35900100  0.50766500  0.08976600  1
  O  O53  1  0.19943700  0.17832100  0.06887400  1
  O  O54  1  0.14866400  0.64099900  0.08976600  1
  O  O55  1  0.85828800  0.52793300  0.14290600  1
  O  O56  1  0.97888400  0.80056300  0.06887400  1
  O  O57  1  0.53163333  0.83688667  0.35805067  1
  O  O58  1  0.30525333  0.46836667  0.35805067  1
  O  O59  1  0.16311333  0.69474667  0.35805067  1
  O  O60  1  0.19178367  0.99919233  0.30852433  1
  O  O61  1  0.00080767  0.19259133  0.30852433  1
  O  O62  1  0.80740867  0.80821633  0.30852433  1
  O  O63  1  0.34462233  0.84392267  0.59204167  1
  O  O64  1  0.44390400  0.11073600  0.52203400  1
  O  O65  1  0.17411500  0.00531800  0.58220200  1
  O  O66  1  0.15607733  0.50069967  0.59204167  1
  O  O67  1  0.99468200  0.16879700  0.58220200  1
  O  O68  1  0.33631167  0.47504533  0.47623933  1
  O  O69  1  0.83120300  0.82588500  0.58220200  1
  O  O70  1  0.48834567  0.35444933  0.40220733  1
  O  O71  1  0.13873367  0.66368833  0.47623933  1
  O  O72  1  0.88926400  0.33316800  0.52203400  1
  O  O73  1  0.49930033  0.65537767  0.59204167  1
  O  O74  1  0.15900167  0.18466933  0.42309933  1
  O  O75  1  0.66683200  0.55609600  0.52203400  1
  O  O76  1  0.02566767  0.84099833  0.42309933  1
  O  O77  1  0.86610367  0.51165433  0.40220733  1
  O  O78  1  0.81533067  0.97433233  0.42309933  1
  O  O79  1  0.52495467  0.86126633  0.47623933  1
  O  O80  1  0.64555067  0.13389633  0.40220733  1
  O  O81  1  0.19830000  0.17022000  0.69138400  1
  O  O82  1  0.97192000  0.80170000  0.69138400  1
  O  O83  1  0.82978000  0.02808000  0.69138400  1
  O  O84  1  0.85845033  0.33252567  0.64185767  1
  O  O85  1  0.66747433  0.52592467  0.64185767  1
  O  O86  1  0.47407533  0.14154967  0.64185767  1
  O  O87  1  0.01128900  0.17725600  0.92537500  1
  O  O88  1  0.11057067  0.44406933  0.85536733  1
  O  O89  1  0.84078167  0.33865133  0.91553533  1
  O  O90  1  0.82274400  0.83403300  0.92537500  1
  O  O91  1  0.66134867  0.50213033  0.91553533  1
  O  O92  1  0.00297833  0.80837867  0.80957267  1
  O  O93  1  0.49786967  0.15921833  0.91553533  1
  O  O94  1  0.15501233  0.68778267  0.73554067  1
  O  O95  1  0.80540033  0.99702167  0.80957267  1
  O  O96  1  0.55593067  0.66650133  0.85536733  1
  O  O97  1  0.16596700  0.98871100  0.92537500  1
  O  O98  1  0.82566833  0.51800267  0.75643267  1
  O  O99  1  0.33349867  0.88942933  0.85536733  1
  O  O100  1  0.69233433  0.17433167  0.75643267  1
  O  O101  1  0.53277033  0.84498767  0.73554067  1
  O  O102  1  0.48199733  0.30766567  0.75643267  1
  O  O103  1  0.19162133  0.19459967  0.80957267  1
  O  O104  1  0.31221733  0.46722967  0.73554067  1
  O  O105  1  0.86496667  0.50355333  0.02471733  1
  O  O106  1  0.63858667  0.13503333  0.02471733  1
  O  O107  1  0.49644667  0.36141333  0.02471733  1
