# generated using pymatgen
data_Cu3As2H2PbO10
_symmetry_space_group_name_H-M   'P 1'
_cell_length_a   10.28607200
_cell_length_b   6.01646000
_cell_length_c   14.19515949
_cell_angle_alpha   90.00000000
_cell_angle_beta   106.16163184
_cell_angle_gamma   90.00000000
_symmetry_Int_Tables_number   1
_chemical_formula_structural   Cu3As2H2PbO10
_chemical_formula_sum   'Cu12 As8 H8 Pb4 O40'
_cell_volume   843.76077178
_cell_formula_units_Z   4
loop_
 _symmetry_equiv_pos_site_id
 _symmetry_equiv_pos_as_xyz
  1  'x, y, z'
loop_
 _atom_site_type_symbol
 _atom_site_label
 _atom_site_symmetry_multiplicity
 _atom_site_fract_x
 _atom_site_fract_y
 _atom_site_fract_z
 _atom_site_occupancy
  Cu  Cu0  1  0.75000000  0.75000000  0.00000000  1
  Cu  Cu1  1  0.50000000  0.00000000  0.50000000  1
  Cu  Cu2  1  0.00000000  0.00000000  0.00000000  1
  Cu  Cu3  1  0.00000000  0.50000000  0.00000000  1
  Cu  Cu4  1  0.75000000  0.25000000  0.50000000  1
  Cu  Cu5  1  0.00000000  0.00000000  0.50000000  1
  Cu  Cu6  1  0.25000000  0.25000000  0.00000000  1
  Cu  Cu7  1  0.00000000  0.50000000  0.50000000  1
  Cu  Cu8  1  0.50000000  0.50000000  0.00000000  1
  Cu  Cu9  1  0.50000000  0.00000000  0.00000000  1
  Cu  Cu10  1  0.25000000  0.75000000  0.50000000  1
  Cu  Cu11  1  0.50000000  0.50000000  0.50000000  1
  As  As12  1  0.19961050  0.70909550  0.85852000  1
  As  As13  1  0.69961050  0.79090450  0.35852000  1
  As  As14  1  0.80038950  0.70909550  0.64148000  1
  As  As15  1  0.30038950  0.79090450  0.14148000  1
  As  As16  1  0.69961050  0.20909550  0.85852000  1
  As  As17  1  0.19961050  0.29090450  0.35852000  1
  As  As18  1  0.30038950  0.20909550  0.64148000  1
  As  As19  1  0.80038950  0.29090450  0.14148000  1
  H  H20  1  0.13119550  0.72166150  0.64063800  1
  H  H21  1  0.63119550  0.77833850  0.14063800  1
  H  H22  1  0.86880450  0.72166150  0.85936200  1
  H  H23  1  0.36880450  0.77833850  0.35936200  1
  H  H24  1  0.63119550  0.22166150  0.64063800  1
  H  H25  1  0.13119550  0.27833850  0.14063800  1
  H  H26  1  0.36880450  0.22166150  0.85936200  1
  H  H27  1  0.86880450  0.27833850  0.35936200  1
  Pb  Pb28  1  0.00000000  0.26084900  0.75000000  1
  Pb  Pb29  1  0.50000000  0.23915100  0.25000000  1
  Pb  Pb30  1  0.50000000  0.76084900  0.75000000  1
  Pb  Pb31  1  0.00000000  0.73915100  0.25000000  1
  O  O32  1  0.10608000  0.74578000  0.56517000  1
  O  O33  1  0.15414400  0.61265500  0.74021400  1
  O  O34  1  0.86450850  0.04338050  0.12310300  1
  O  O35  1  0.13591350  0.48809850  0.91717400  1
  O  O36  1  0.87821300  0.78954100  0.40365400  1
  O  O37  1  0.86408650  0.48809850  0.58282600  1
  O  O38  1  0.86450850  0.95661950  0.62310300  1
  O  O39  1  0.62178700  0.28954100  0.09634600  1
  O  O40  1  0.60608000  0.75422000  0.06517000  1
  O  O41  1  0.65414400  0.88734500  0.24021400  1
  O  O42  1  0.84585600  0.61265500  0.75978600  1
  O  O43  1  0.89392000  0.74578000  0.93483000  1
  O  O44  1  0.87821300  0.21045900  0.90365400  1
  O  O45  1  0.63549150  0.54338050  0.37689700  1
  O  O46  1  0.63591350  0.01190150  0.41717400  1
  O  O47  1  0.62178700  0.71045900  0.59634600  1
  O  O48  1  0.36408650  0.01190150  0.08282600  1
  O  O49  1  0.63549150  0.45661950  0.87689700  1
  O  O50  1  0.34585600  0.88734500  0.25978600  1
  O  O51  1  0.39392000  0.75422000  0.43483000  1
  O  O52  1  0.60608000  0.24578000  0.56517000  1
  O  O53  1  0.65414400  0.11265500  0.74021400  1
  O  O54  1  0.36450850  0.54338050  0.12310300  1
  O  O55  1  0.63591350  0.98809850  0.91717400  1
  O  O56  1  0.37821300  0.28954100  0.40365400  1
  O  O57  1  0.36408650  0.98809850  0.58282600  1
  O  O58  1  0.36450850  0.45661950  0.62310300  1
  O  O59  1  0.12178700  0.78954100  0.09634600  1
  O  O60  1  0.10608000  0.25422000  0.06517000  1
  O  O61  1  0.15414400  0.38734500  0.24021400  1
  O  O62  1  0.34585600  0.11265500  0.75978600  1
  O  O63  1  0.39392000  0.24578000  0.93483000  1
  O  O64  1  0.37821300  0.71045900  0.90365400  1
  O  O65  1  0.13549150  0.04338050  0.37689700  1
  O  O66  1  0.13591350  0.51190150  0.41717400  1
  O  O67  1  0.12178700  0.21045900  0.59634600  1
  O  O68  1  0.86408650  0.51190150  0.08282600  1
  O  O69  1  0.13549150  0.95661950  0.87689700  1
  O  O70  1  0.84585600  0.38734500  0.25978600  1
  O  O71  1  0.89392000  0.25422000  0.43483000  1
