# generated using pymatgen
data_MnVO4
_symmetry_space_group_name_H-M   'P 1'
_cell_length_a   5.82315000
_cell_length_b   5.97426800
_cell_length_c   8.44705800
_cell_angle_alpha   90.00000000
_cell_angle_beta   90.00000000
_cell_angle_gamma   90.00000000
_symmetry_Int_Tables_number   1
_chemical_formula_structural   MnVO4
_chemical_formula_sum   'Mn4 V4 O16'
_cell_volume   293.86519664
_cell_formula_units_Z   4
loop_
 _symmetry_equiv_pos_site_id
 _symmetry_equiv_pos_as_xyz
  1  'x, y, z'
loop_
 _atom_site_type_symbol
 _atom_site_label
 _atom_site_symmetry_multiplicity
 _atom_site_fract_x
 _atom_site_fract_y
 _atom_site_fract_z
 _atom_site_occupancy
  Mn  Mn0  1  0.50000000  0.00000000  0.00000000  1
  Mn  Mn1  1  0.50000000  0.50000000  0.00000000  1
  Mn  Mn2  1  0.00000000  0.50000000  0.50000000  1
  Mn  Mn3  1  0.00000000  0.00000000  0.50000000  1
  V  V4  1  0.00000000  0.75000000  0.88203200  1
  V  V5  1  0.00000000  0.25000000  0.11796800  1
  V  V6  1  0.50000000  0.25000000  0.38203200  1
  V  V7  1  0.50000000  0.75000000  0.61796800  1
  O  O8  1  0.27581700  0.75000000  0.99530600  1
  O  O9  1  0.72418300  0.75000000  0.99530600  1
  O  O10  1  0.00000000  0.02620600  0.23562800  1
  O  O11  1  0.50000000  0.97379400  0.73562800  1
  O  O12  1  0.00000000  0.97379400  0.76437200  1
  O  O13  1  0.50000000  0.02620600  0.26437200  1
  O  O14  1  0.72418300  0.25000000  0.00469400  1
  O  O15  1  0.27581700  0.25000000  0.00469400  1
  O  O16  1  0.77581700  0.25000000  0.49530600  1
  O  O17  1  0.22418300  0.25000000  0.49530600  1
  O  O18  1  0.50000000  0.52620600  0.73562800  1
  O  O19  1  0.00000000  0.47379400  0.23562800  1
  O  O20  1  0.50000000  0.47379400  0.26437200  1
  O  O21  1  0.00000000  0.52620600  0.76437200  1
  O  O22  1  0.22418300  0.75000000  0.50469400  1
  O  O23  1  0.77581700  0.75000000  0.50469400  1
