# generated using pymatgen
data_V2O3F
_symmetry_space_group_name_H-M   'P 1'
_cell_length_a   6.41475000
_cell_length_b   6.86070600
_cell_length_c   12.11244200
_cell_angle_alpha   90.00000000
_cell_angle_beta   90.00000000
_cell_angle_gamma   90.00000000
_symmetry_Int_Tables_number   1
_chemical_formula_structural   V2O3F
_chemical_formula_sum   'V16 O24 F8'
_cell_volume   533.06510600
_cell_formula_units_Z   8
loop_
 _symmetry_equiv_pos_site_id
 _symmetry_equiv_pos_as_xyz
  1  'x, y, z'
loop_
 _atom_site_type_symbol
 _atom_site_label
 _atom_site_symmetry_multiplicity
 _atom_site_fract_x
 _atom_site_fract_y
 _atom_site_fract_z
 _atom_site_occupancy
  V  V0  1  0.50000000  0.49655100  0.37465800  1
  V  V1  1  0.50000000  0.49655100  0.62534200  1
  V  V2  1  0.50000000  0.49094800  0.87529100  1
  V  V3  1  0.50000000  0.49094800  0.12470900  1
  V  V4  1  0.50000000  0.95052800  0.50000000  1
  V  V5  1  0.50000000  0.03508000  0.00000000  1
  V  V6  1  0.50000000  0.03892300  0.25056000  1
  V  V7  1  0.50000000  0.03892300  0.74944000  1
  V  V8  1  0.00000000  0.99655100  0.37465800  1
  V  V9  1  0.00000000  0.99655100  0.62534200  1
  V  V10  1  0.00000000  0.99094800  0.87529100  1
  V  V11  1  0.00000000  0.99094800  0.12470900  1
  V  V12  1  0.00000000  0.45052800  0.50000000  1
  V  V13  1  0.00000000  0.53508000  0.00000000  1
  V  V14  1  0.00000000  0.53892300  0.25056000  1
  V  V15  1  0.00000000  0.53892300  0.74944000  1
  O  O16  1  0.50000000  0.29995300  0.25007500  1
  O  O17  1  0.50000000  0.29995300  0.74992500  1
  O  O18  1  0.50000000  0.29778800  0.00000000  1
  O  O19  1  0.30756200  0.99593200  0.37535100  1
  O  O20  1  0.30756200  0.99593200  0.62464900  1
  O  O21  1  0.30681350  0.99991850  0.87461900  1
  O  O22  1  0.30681350  0.99991850  0.12538100  1
  O  O23  1  0.69243800  0.99593200  0.37535100  1
  O  O24  1  0.69243800  0.99593200  0.62464900  1
  O  O25  1  0.69318650  0.99991850  0.87461900  1
  O  O26  1  0.69318650  0.99991850  0.12538100  1
  O  O27  1  0.50000000  0.69115600  0.50000000  1
  O  O28  1  0.00000000  0.79995300  0.25007500  1
  O  O29  1  0.00000000  0.79995300  0.74992500  1
  O  O30  1  0.00000000  0.79778800  0.00000000  1
  O  O31  1  0.80756200  0.49593200  0.37535100  1
  O  O32  1  0.80756200  0.49593200  0.62464900  1
  O  O33  1  0.80681350  0.49991850  0.87461900  1
  O  O34  1  0.80681350  0.49991850  0.12538100  1
  O  O35  1  0.19243800  0.49593200  0.37535100  1
  O  O36  1  0.19243800  0.49593200  0.62464900  1
  O  O37  1  0.19318650  0.49991850  0.87461900  1
  O  O38  1  0.19318650  0.49991850  0.12538100  1
  O  O39  1  0.00000000  0.19115600  0.50000000  1
  F  F40  1  0.50000000  0.29615000  0.50000000  1
  F  F41  1  0.50000000  0.69769800  0.75060600  1
  F  F42  1  0.50000000  0.69774900  0.00000000  1
  F  F43  1  0.50000000  0.69769800  0.24939400  1
  F  F44  1  0.00000000  0.79615000  0.50000000  1
  F  F45  1  0.00000000  0.19769800  0.75060600  1
  F  F46  1  0.00000000  0.19774900  0.00000000  1
  F  F47  1  0.00000000  0.19769800  0.24939400  1
