# generated using pymatgen
data_Li2CrO2
_symmetry_space_group_name_H-M   'P 1'
_cell_length_a   2.95202400
_cell_length_b   9.84909000
_cell_length_c   7.20649800
_cell_angle_alpha   90.00000000
_cell_angle_beta   90.00000000
_cell_angle_gamma   90.00000000
_symmetry_Int_Tables_number   1
_chemical_formula_structural   Li2CrO2
_chemical_formula_sum   'Li8 Cr4 O8'
_cell_volume   209.52712814
_cell_formula_units_Z   4
loop_
 _symmetry_equiv_pos_site_id
 _symmetry_equiv_pos_as_xyz
  1  'x, y, z'
loop_
 _atom_site_type_symbol
 _atom_site_label
 _atom_site_symmetry_multiplicity
 _atom_site_fract_x
 _atom_site_fract_y
 _atom_site_fract_z
 _atom_site_occupancy
  Li  Li0  1  0.00000000  0.11364700  0.36564100  1
  Li  Li1  1  0.00000000  0.39500700  0.14726600  1
  Li  Li2  1  0.50000000  0.38635300  0.86564100  1
  Li  Li3  1  0.50000000  0.10499300  0.64726600  1
  Li  Li4  1  0.50000000  0.61364700  0.36564100  1
  Li  Li5  1  0.50000000  0.89500700  0.14726600  1
  Li  Li6  1  0.00000000  0.88635300  0.86564100  1
  Li  Li7  1  0.00000000  0.60499300  0.64726600  1
  Cr  Cr8  1  0.00000000  0.14256800  0.98884300  1
  Cr  Cr9  1  0.50000000  0.35743200  0.48884300  1
  Cr  Cr10  1  0.50000000  0.64256800  0.98884300  1
  Cr  Cr11  1  0.00000000  0.85743200  0.48884300  1
  O  O12  1  0.00000000  0.23292200  0.58412400  1
  O  O13  1  0.00000000  0.48619200  0.39923500  1
  O  O14  1  0.50000000  0.26707800  0.08412400  1
  O  O15  1  0.50000000  0.01380800  0.89923500  1
  O  O16  1  0.50000000  0.73292200  0.58412400  1
  O  O17  1  0.50000000  0.98619200  0.39923500  1
  O  O18  1  0.00000000  0.76707800  0.08412400  1
  O  O19  1  0.00000000  0.51380800  0.89923500  1
