# generated using pymatgen
data_Na4Fe2P(CO4)4
_symmetry_space_group_name_H-M   'P 1'
_cell_length_a   13.77268800
_cell_length_b   13.86493400
_cell_length_c   14.41241000
_cell_angle_alpha   90.00000000
_cell_angle_beta   90.00000000
_cell_angle_gamma   90.00000000
_symmetry_Int_Tables_number   1
_chemical_formula_structural   Na4Fe2P(CO4)4
_chemical_formula_sum   'Na32 Fe16 P8 C32 O128'
_cell_volume   2752.15648722
_cell_formula_units_Z   8
loop_
 _symmetry_equiv_pos_site_id
 _symmetry_equiv_pos_as_xyz
  1  'x, y, z'
loop_
 _atom_site_type_symbol
 _atom_site_label
 _atom_site_symmetry_multiplicity
 _atom_site_fract_x
 _atom_site_fract_y
 _atom_site_fract_z
 _atom_site_occupancy
  Na  Na0  1  0.75000000  0.46020000  0.25000000  1
  Na  Na1  1  0.95998600  0.25000000  0.25000000  1
  Na  Na2  1  0.70998600  0.00000000  0.00000000  1
  Na  Na3  1  0.50000000  0.21020000  0.00000000  1
  Na  Na4  1  0.75000000  0.03980000  0.25000000  1
  Na  Na5  1  0.54001400  0.25000000  0.25000000  1
  Na  Na6  1  0.29001400  0.00000000  0.00000000  1
  Na  Na7  1  0.50000000  0.78980000  0.00000000  1
  Na  Na8  1  0.75000000  0.96020000  0.75000000  1
  Na  Na9  1  0.95998600  0.75000000  0.75000000  1
  Na  Na10  1  0.70998600  0.50000000  0.50000000  1
  Na  Na11  1  0.50000000  0.71020000  0.50000000  1
  Na  Na12  1  0.75000000  0.53980000  0.75000000  1
  Na  Na13  1  0.54001400  0.75000000  0.75000000  1
  Na  Na14  1  0.29001400  0.50000000  0.50000000  1
  Na  Na15  1  0.50000000  0.28980000  0.50000000  1
  Na  Na16  1  0.25000000  0.46020000  0.75000000  1
  Na  Na17  1  0.45998600  0.25000000  0.75000000  1
  Na  Na18  1  0.20998600  0.00000000  0.50000000  1
  Na  Na19  1  0.00000000  0.21020000  0.50000000  1
  Na  Na20  1  0.25000000  0.03980000  0.75000000  1
  Na  Na21  1  0.04001400  0.25000000  0.75000000  1
  Na  Na22  1  0.79001400  0.00000000  0.50000000  1
  Na  Na23  1  0.00000000  0.78980000  0.50000000  1
  Na  Na24  1  0.25000000  0.96020000  0.25000000  1
  Na  Na25  1  0.45998600  0.75000000  0.25000000  1
  Na  Na26  1  0.20998600  0.50000000  0.00000000  1
  Na  Na27  1  0.00000000  0.71020000  0.00000000  1
  Na  Na28  1  0.25000000  0.53980000  0.25000000  1
  Na  Na29  1  0.04001400  0.75000000  0.25000000  1
  Na  Na30  1  0.79001400  0.50000000  0.00000000  1
  Na  Na31  1  0.00000000  0.28980000  0.00000000  1
  Fe  Fe32  1  0.62500000  0.62500000  0.12500000  1
  Fe  Fe33  1  0.87500000  0.87500000  0.12500000  1
  Fe  Fe34  1  0.87500000  0.62500000  0.37500000  1
  Fe  Fe35  1  0.62500000  0.87500000  0.37500000  1
  Fe  Fe36  1  0.62500000  0.12500000  0.62500000  1
  Fe  Fe37  1  0.87500000  0.37500000  0.62500000  1
  Fe  Fe38  1  0.87500000  0.12500000  0.87500000  1
  Fe  Fe39  1  0.62500000  0.37500000  0.87500000  1
  Fe  Fe40  1  0.12500000  0.62500000  0.62500000  1
  Fe  Fe41  1  0.37500000  0.87500000  0.62500000  1
  Fe  Fe42  1  0.37500000  0.62500000  0.87500000  1
  Fe  Fe43  1  0.12500000  0.87500000  0.87500000  1
  Fe  Fe44  1  0.12500000  0.12500000  0.12500000  1
  Fe  Fe45  1  0.37500000  0.37500000  0.12500000  1
  Fe  Fe46  1  0.37500000  0.12500000  0.37500000  1
  Fe  Fe47  1  0.12500000  0.37500000  0.37500000  1
  P  P48  1  0.50000000  0.00000000  0.00000000  1
  P  P49  1  0.75000000  0.25000000  0.25000000  1
  P  P50  1  0.50000000  0.50000000  0.50000000  1
  P  P51  1  0.75000000  0.75000000  0.75000000  1
  P  P52  1  0.00000000  0.00000000  0.50000000  1
  P  P53  1  0.25000000  0.25000000  0.75000000  1
  P  P54  1  0.00000000  0.50000000  0.00000000  1
  P  P55  1  0.25000000  0.75000000  0.25000000  1
  C  C56  1  0.90829600  0.40995650  0.41498150  1
  C  C57  1  0.15829600  0.15995650  0.33501850  1
  C  C58  1  0.59170400  0.40995650  0.08501850  1
  C  C59  1  0.90829600  0.09004350  0.08501850  1
  C  C60  1  0.34170400  0.15995650  0.16498150  1
  C  C61  1  0.65829600  0.84004350  0.16498150  1
  C  C62  1  0.59170400  0.09004350  0.41498150  1
  C  C63  1  0.84170400  0.84004350  0.33501850  1
  C  C64  1  0.90829600  0.90995650  0.91498150  1
  C  C65  1  0.15829600  0.65995650  0.83501850  1
  C  C66  1  0.59170400  0.90995650  0.58501850  1
  C  C67  1  0.90829600  0.59004350  0.58501850  1
  C  C68  1  0.34170400  0.65995650  0.66498150  1
  C  C69  1  0.65829600  0.34004350  0.66498150  1
  C  C70  1  0.59170400  0.59004350  0.91498150  1
  C  C71  1  0.84170400  0.34004350  0.83501850  1
  C  C72  1  0.40829600  0.40995650  0.91498150  1
  C  C73  1  0.65829600  0.15995650  0.83501850  1
  C  C74  1  0.09170400  0.40995650  0.58501850  1
  C  C75  1  0.40829600  0.09004350  0.58501850  1
  C  C76  1  0.84170400  0.15995650  0.66498150  1
  C  C77  1  0.15829600  0.84004350  0.66498150  1
  C  C78  1  0.09170400  0.09004350  0.91498150  1
  C  C79  1  0.34170400  0.84004350  0.83501850  1
  C  C80  1  0.40829600  0.90995650  0.41498150  1
  C  C81  1  0.65829600  0.65995650  0.33501850  1
  C  C82  1  0.09170400  0.90995650  0.08501850  1
  C  C83  1  0.40829600  0.59004350  0.08501850  1
  C  C84  1  0.84170400  0.65995650  0.16498150  1
  C  C85  1  0.15829600  0.34004350  0.16498150  1
  C  C86  1  0.09170400  0.59004350  0.41498150  1
  C  C87  1  0.34170400  0.34004350  0.33501850  1
  O  O88  1  0.39168200  0.97991250  0.35690150  1
  O  O89  1  0.06495350  0.93396500  0.43914450  1
  O  O90  1  0.35343700  0.89855550  0.48683450  1
  O  O91  1  0.10343700  0.14855550  0.26316550  1
  O  O92  1  0.14656300  0.89855550  0.01316550  1
  O  O93  1  0.22927150  0.09983250  0.35112500  1
  O  O94  1  0.43504650  0.93396500  0.06085550  1
  O  O95  1  0.93504650  0.06603500  0.43914450  1
  O  O96  1  0.72927150  0.90016750  0.14887500  1
  O  O97  1  0.85343700  0.10144450  0.01316550  1
  O  O98  1  0.14168200  0.22991250  0.39309850  1
  O  O99  1  0.56495350  0.06603500  0.06085550  1
  O  O100  1  0.10831800  0.97991250  0.14309850  1
  O  O101  1  0.89168200  0.02008750  0.14309850  1
  O  O102  1  0.97927150  0.34983250  0.39887500  1
  O  O103  1  0.27072850  0.09983250  0.14887500  1
  O  O104  1  0.47927150  0.65016750  0.10112500  1
  O  O105  1  0.77072850  0.90016750  0.35112500  1
  O  O106  1  0.35831800  0.22991250  0.10690150  1
  O  O107  1  0.64168200  0.77008750  0.10690150  1
  O  O108  1  0.68504650  0.18396500  0.18914450  1
  O  O109  1  0.60831800  0.02008750  0.35690150  1
  O  O110  1  0.39656300  0.14855550  0.23683450  1
  O  O111  1  0.52072850  0.34983250  0.10112500  1
  O  O112  1  0.81495350  0.18396500  0.31085550  1
  O  O113  1  0.81495350  0.31603500  0.18914450  1
  O  O114  1  0.02072850  0.65016750  0.39887500  1
  O  O115  1  0.60343700  0.85144450  0.23683450  1
  O  O116  1  0.64656300  0.10144450  0.48683450  1
  O  O117  1  0.89656300  0.85144450  0.26316550  1
  O  O118  1  0.68504650  0.31603500  0.31085550  1
  O  O119  1  0.85831800  0.77008750  0.39309850  1
  O  O120  1  0.39168200  0.47991250  0.85690150  1
  O  O121  1  0.06495350  0.43396500  0.93914450  1
  O  O122  1  0.35343700  0.39855550  0.98683450  1
  O  O123  1  0.10343700  0.64855550  0.76316550  1
  O  O124  1  0.14656300  0.39855550  0.51316550  1
  O  O125  1  0.22927150  0.59983250  0.85112500  1
  O  O126  1  0.43504650  0.43396500  0.56085550  1
  O  O127  1  0.93504650  0.56603500  0.93914450  1
  O  O128  1  0.72927150  0.40016750  0.64887500  1
  O  O129  1  0.85343700  0.60144450  0.51316550  1
  O  O130  1  0.14168200  0.72991250  0.89309850  1
  O  O131  1  0.56495350  0.56603500  0.56085550  1
  O  O132  1  0.10831800  0.47991250  0.64309850  1
  O  O133  1  0.89168200  0.52008750  0.64309850  1
  O  O134  1  0.97927150  0.84983250  0.89887500  1
  O  O135  1  0.27072850  0.59983250  0.64887500  1
  O  O136  1  0.47927150  0.15016750  0.60112500  1
  O  O137  1  0.77072850  0.40016750  0.85112500  1
  O  O138  1  0.35831800  0.72991250  0.60690150  1
  O  O139  1  0.64168200  0.27008750  0.60690150  1
  O  O140  1  0.68504650  0.68396500  0.68914450  1
  O  O141  1  0.60831800  0.52008750  0.85690150  1
  O  O142  1  0.39656300  0.64855550  0.73683450  1
  O  O143  1  0.52072850  0.84983250  0.60112500  1
  O  O144  1  0.81495350  0.68396500  0.81085550  1
  O  O145  1  0.81495350  0.81603500  0.68914450  1
  O  O146  1  0.02072850  0.15016750  0.89887500  1
  O  O147  1  0.60343700  0.35144450  0.73683450  1
  O  O148  1  0.64656300  0.60144450  0.98683450  1
  O  O149  1  0.89656300  0.35144450  0.76316550  1
  O  O150  1  0.68504650  0.81603500  0.81085550  1
  O  O151  1  0.85831800  0.27008750  0.89309850  1
  O  O152  1  0.89168200  0.97991250  0.85690150  1
  O  O153  1  0.56495350  0.93396500  0.93914450  1
  O  O154  1  0.85343700  0.89855550  0.98683450  1
  O  O155  1  0.60343700  0.14855550  0.76316550  1
  O  O156  1  0.64656300  0.89855550  0.51316550  1
  O  O157  1  0.72927150  0.09983250  0.85112500  1
  O  O158  1  0.93504650  0.93396500  0.56085550  1
  O  O159  1  0.43504650  0.06603500  0.93914450  1
  O  O160  1  0.22927150  0.90016750  0.64887500  1
  O  O161  1  0.35343700  0.10144450  0.51316550  1
  O  O162  1  0.64168200  0.22991250  0.89309850  1
  O  O163  1  0.06495350  0.06603500  0.56085550  1
  O  O164  1  0.60831800  0.97991250  0.64309850  1
  O  O165  1  0.39168200  0.02008750  0.64309850  1
  O  O166  1  0.47927150  0.34983250  0.89887500  1
  O  O167  1  0.77072850  0.09983250  0.64887500  1
  O  O168  1  0.97927150  0.65016750  0.60112500  1
  O  O169  1  0.27072850  0.90016750  0.85112500  1
  O  O170  1  0.85831800  0.22991250  0.60690150  1
  O  O171  1  0.14168200  0.77008750  0.60690150  1
  O  O172  1  0.18504650  0.18396500  0.68914450  1
  O  O173  1  0.10831800  0.02008750  0.85690150  1
  O  O174  1  0.89656300  0.14855550  0.73683450  1
  O  O175  1  0.02072850  0.34983250  0.60112500  1
  O  O176  1  0.31495350  0.18396500  0.81085550  1
  O  O177  1  0.31495350  0.31603500  0.68914450  1
  O  O178  1  0.52072850  0.65016750  0.89887500  1
  O  O179  1  0.10343700  0.85144450  0.73683450  1
  O  O180  1  0.14656300  0.10144450  0.98683450  1
  O  O181  1  0.39656300  0.85144450  0.76316550  1
  O  O182  1  0.18504650  0.31603500  0.81085550  1
  O  O183  1  0.35831800  0.77008750  0.89309850  1
  O  O184  1  0.89168200  0.47991250  0.35690150  1
  O  O185  1  0.56495350  0.43396500  0.43914450  1
  O  O186  1  0.85343700  0.39855550  0.48683450  1
  O  O187  1  0.60343700  0.64855550  0.26316550  1
  O  O188  1  0.64656300  0.39855550  0.01316550  1
  O  O189  1  0.72927150  0.59983250  0.35112500  1
  O  O190  1  0.93504650  0.43396500  0.06085550  1
  O  O191  1  0.43504650  0.56603500  0.43914450  1
  O  O192  1  0.22927150  0.40016750  0.14887500  1
  O  O193  1  0.35343700  0.60144450  0.01316550  1
  O  O194  1  0.64168200  0.72991250  0.39309850  1
  O  O195  1  0.06495350  0.56603500  0.06085550  1
  O  O196  1  0.60831800  0.47991250  0.14309850  1
  O  O197  1  0.39168200  0.52008750  0.14309850  1
  O  O198  1  0.47927150  0.84983250  0.39887500  1
  O  O199  1  0.77072850  0.59983250  0.14887500  1
  O  O200  1  0.97927150  0.15016750  0.10112500  1
  O  O201  1  0.27072850  0.40016750  0.35112500  1
  O  O202  1  0.85831800  0.72991250  0.10690150  1
  O  O203  1  0.14168200  0.27008750  0.10690150  1
  O  O204  1  0.18504650  0.68396500  0.18914450  1
  O  O205  1  0.10831800  0.52008750  0.35690150  1
  O  O206  1  0.89656300  0.64855550  0.23683450  1
  O  O207  1  0.02072850  0.84983250  0.10112500  1
  O  O208  1  0.31495350  0.68396500  0.31085550  1
  O  O209  1  0.31495350  0.81603500  0.18914450  1
  O  O210  1  0.52072850  0.15016750  0.39887500  1
  O  O211  1  0.10343700  0.35144450  0.23683450  1
  O  O212  1  0.14656300  0.60144450  0.48683450  1
  O  O213  1  0.39656300  0.35144450  0.26316550  1
  O  O214  1  0.18504650  0.81603500  0.31085550  1
  O  O215  1  0.35831800  0.27008750  0.39309850  1
