# generated using pymatgen
data_MnV3Ni2(PO4)6
_symmetry_space_group_name_H-M   'P 1'
_cell_length_a   8.65826583
_cell_length_b   8.65826583
_cell_length_c   20.54800790
_cell_angle_alpha   90.00000000
_cell_angle_beta   90.00000000
_cell_angle_gamma   120.00000000
_symmetry_Int_Tables_number   1
_chemical_formula_structural   MnV3Ni2(PO4)6
_chemical_formula_sum   'Mn3 V9 Ni6 P18 O72'
_cell_volume   1334.01952850
_cell_formula_units_Z   3
loop_
 _symmetry_equiv_pos_site_id
 _symmetry_equiv_pos_as_xyz
  1  'x, y, z'
loop_
 _atom_site_type_symbol
 _atom_site_label
 _atom_site_symmetry_multiplicity
 _atom_site_fract_x
 _atom_site_fract_y
 _atom_site_fract_z
 _atom_site_occupancy
  Mn  Mn0  1  0.33333333  0.66666667  0.52340767  1
  Mn  Mn1  1  0.00000000  0.00000000  0.85674100  1
  Mn  Mn2  1  0.66666667  0.33333333  0.19007433  1
  V  V3  1  0.33333333  0.66666667  0.02303167  1
  V  V4  1  0.33333333  0.66666667  0.80879667  1
  V  V5  1  0.33333333  0.66666667  0.30993867  1
  V  V6  1  0.00000000  0.00000000  0.35636500  1
  V  V7  1  0.00000000  0.00000000  0.14213000  1
  V  V8  1  0.00000000  0.00000000  0.64327200  1
  V  V9  1  0.66666667  0.33333333  0.68969833  1
  V  V10  1  0.66666667  0.33333333  0.47546333  1
  V  V11  1  0.66666667  0.33333333  0.97660533  1
  Ni  Ni12  1  0.33333333  0.66666667  0.66551567  1
  Ni  Ni13  1  0.33333333  0.66666667  0.16546567  1
  Ni  Ni14  1  0.00000000  0.00000000  0.99884900  1
  Ni  Ni15  1  0.00000000  0.00000000  0.49879900  1
  Ni  Ni16  1  0.66666667  0.33333333  0.33218233  1
  Ni  Ni17  1  0.66666667  0.33333333  0.83213233  1
  P  P18  1  0.66859133  0.63112667  0.08369267  1
  P  P19  1  0.96253533  0.33140867  0.08369267  1
  P  P20  1  0.36887333  0.03746467  0.08369267  1
  P  P21  1  0.29162600  0.29396100  0.25064800  1
  P  P22  1  0.70603900  0.99766500  0.25064800  1
  P  P23  1  0.00233500  0.70837400  0.25064800  1
  P  P24  1  0.33525800  0.96446000  0.41702600  1
  P  P25  1  0.62920200  0.66474200  0.41702600  1
  P  P26  1  0.03554000  0.37079800  0.41702600  1
  P  P27  1  0.95829267  0.62729433  0.58398133  1
  P  P28  1  0.37270567  0.33099833  0.58398133  1
  P  P29  1  0.66900167  0.04170733  0.58398133  1
  P  P30  1  0.00192467  0.29779333  0.75035933  1
  P  P31  1  0.29586867  0.99807533  0.75035933  1
  P  P32  1  0.70220667  0.70413133  0.75035933  1
  P  P33  1  0.62495933  0.96062767  0.91731467  1
  P  P34  1  0.03937233  0.66433167  0.91731467  1
  P  P35  1  0.33566833  0.37504067  0.91731467  1
  O  O36  1  0.52584200  0.66670900  0.35536000  1
  O  O37  1  0.14086700  0.47415800  0.35536000  1
  O  O38  1  0.33329100  0.85913300  0.35536000  1
  O  O39  1  0.83593400  0.82241000  0.07454100  1
  O  O40  1  0.67083400  0.54359500  0.14592800  1
  O  O41  1  0.50169433  0.65828667  0.08756467  1
  O  O42  1  0.98647600  0.16406600  0.07454100  1
  O  O43  1  0.15659233  0.49830567  0.08756467  1
  O  O44  1  0.19323633  0.19044167  0.18839467  1
  O  O45  1  0.34171333  0.84340767  0.08756467  1
  O  O46  1  0.47442967  0.31162933  0.26200233  1
  O  O47  1  0.80955833  0.00279467  0.18839467  1
  O  O48  1  0.87276100  0.32916600  0.14592800  1
  O  O49  1  0.17759000  0.01352400  0.07454100  1
  O  O50  1  0.31144700  0.48383600  0.24233300  1
  O  O51  1  0.45640500  0.12723900  0.14592800  1
  O  O52  1  0.51616400  0.82761100  0.24233300  1
  O  O53  1  0.68837067  0.16280033  0.26200233  1
  O  O54  1  0.17238900  0.68855300  0.24233300  1
  O  O55  1  0.99720533  0.80676367  0.18839467  1
  O  O56  1  0.83719967  0.52557033  0.26200233  1
  O  O57  1  0.35607367  0.48995933  0.97747833  1
  O  O58  1  0.51004067  0.86611433  0.97747833  1
  O  O59  1  0.13388567  0.64392633  0.97747833  1
  O  O60  1  0.19250867  0.00004233  0.68869333  1
  O  O61  1  0.80753367  0.80749133  0.68869333  1
  O  O62  1  0.99995767  0.19246633  0.68869333  1
  O  O63  1  0.50260067  0.15574333  0.40787433  1
  O  O64  1  0.33750067  0.87692833  0.47926133  1
  O  O65  1  0.16836100  0.99162000  0.42089800  1
  O  O66  1  0.65314267  0.49739933  0.40787433  1
  O  O67  1  0.82325900  0.83163900  0.42089800  1
  O  O68  1  0.85990300  0.52377500  0.52172800  1
  O  O69  1  0.00838000  0.17674100  0.42089800  1
  O  O70  1  0.14109633  0.64496267  0.59533567  1
  O  O71  1  0.47622500  0.33612800  0.52172800  1
  O  O72  1  0.53942767  0.66249933  0.47926133  1
  O  O73  1  0.84425667  0.34685733  0.40787433  1
  O  O74  1  0.97811367  0.81716933  0.57566633  1
  O  O75  1  0.12307167  0.46057233  0.47926133  1
  O  O76  1  0.18283067  0.16094433  0.57566633  1
  O  O77  1  0.35503733  0.49613367  0.59533567  1
  O  O78  1  0.83905567  0.02188633  0.57566633  1
  O  O79  1  0.66387200  0.14009700  0.52172800  1
  O  O80  1  0.50386633  0.85890367  0.59533567  1
  O  O81  1  0.02274033  0.82329267  0.31081167  1
  O  O82  1  0.17670733  0.19944767  0.31081167  1
  O  O83  1  0.80055233  0.97725967  0.31081167  1
  O  O84  1  0.85917533  0.33337567  0.02202667  1
  O  O85  1  0.47420033  0.14082467  0.02202667  1
  O  O86  1  0.66662433  0.52579967  0.02202667  1
  O  O87  1  0.16926733  0.48907667  0.74120767  1
  O  O88  1  0.00416733  0.21026167  0.81259467  1
  O  O89  1  0.83502767  0.32495333  0.75423133  1
  O  O90  1  0.31980933  0.83073267  0.74120767  1
  O  O91  1  0.48992567  0.16497233  0.75423133  1
  O  O92  1  0.52656967  0.85710833  0.85506133  1
  O  O93  1  0.67504667  0.51007433  0.75423133  1
  O  O94  1  0.80776300  0.97829600  0.92866900  1
  O  O95  1  0.14289167  0.66946133  0.85506133  1
  O  O96  1  0.20609433  0.99583267  0.81259467  1
  O  O97  1  0.51092333  0.68019067  0.74120767  1
  O  O98  1  0.64478033  0.15050267  0.90899967  1
  O  O99  1  0.78973833  0.79390567  0.81259467  1
  O  O100  1  0.84949733  0.49427767  0.90899967  1
  O  O101  1  0.02170400  0.82946700  0.92866900  1
  O  O102  1  0.50572233  0.35521967  0.90899967  1
  O  O103  1  0.33053867  0.47343033  0.85506133  1
  O  O104  1  0.17053300  0.19223700  0.92866900  1
  O  O105  1  0.68940700  0.15662600  0.64414500  1
  O  O106  1  0.84337400  0.53278100  0.64414500  1
  O  O107  1  0.46721900  0.31059300  0.64414500  1
