# generated using pymatgen
data_Li6MnV3(PO4)6
_symmetry_space_group_name_H-M   'P 1'
_cell_length_a   8.48287016
_cell_length_b   8.48287016
_cell_length_c   22.81346069
_cell_angle_alpha   90.00000000
_cell_angle_beta   90.00000000
_cell_angle_gamma   120.00000000
_symmetry_Int_Tables_number   1
_chemical_formula_structural   Li6MnV3(PO4)6
_chemical_formula_sum   'Li18 Mn3 V9 P18 O72'
_cell_volume   1421.69829394
_cell_formula_units_Z   3
loop_
 _symmetry_equiv_pos_site_id
 _symmetry_equiv_pos_as_xyz
  1  'x, y, z'
loop_
 _atom_site_type_symbol
 _atom_site_label
 _atom_site_symmetry_multiplicity
 _atom_site_fract_x
 _atom_site_fract_y
 _atom_site_fract_z
 _atom_site_occupancy
  Li  Li0  1  0.28869000  0.31683200  0.04977200  1
  Li  Li1  1  0.68316800  0.97185800  0.04977200  1
  Li  Li2  1  0.02814200  0.71131000  0.04977200  1
  Li  Li3  1  0.64024867  0.61514033  0.28397133  1
  Li  Li4  1  0.97489167  0.35975133  0.28397133  1
  Li  Li5  1  0.38485967  0.02510833  0.28397133  1
  Li  Li6  1  0.95535667  0.65016533  0.38310533  1
  Li  Li7  1  0.34983467  0.30519133  0.38310533  1
  Li  Li8  1  0.69480867  0.04464333  0.38310533  1
  Li  Li9  1  0.30691533  0.94847367  0.61730467  1
  Li  Li10  1  0.64155833  0.69308467  0.61730467  1
  Li  Li11  1  0.05152633  0.35844167  0.61730467  1
  Li  Li12  1  0.62202333  0.98349867  0.71643867  1
  Li  Li13  1  0.01650133  0.63852467  0.71643867  1
  Li  Li14  1  0.36147533  0.37797667  0.71643867  1
  Li  Li15  1  0.97358200  0.28180700  0.95063800  1
  Li  Li16  1  0.30822500  0.02641800  0.95063800  1
  Li  Li17  1  0.71819300  0.69177500  0.95063800  1
  Mn  Mn18  1  0.66666667  0.33333333  0.18744933  1
  Mn  Mn19  1  0.33333333  0.66666667  0.52078267  1
  Mn  Mn20  1  0.00000000  0.00000000  0.85411600  1
  V  V21  1  0.33333333  0.66666667  0.01527867  1
  V  V22  1  0.00000000  0.00000000  0.14613200  1
  V  V23  1  0.33333333  0.66666667  0.31766967  1
  V  V24  1  0.00000000  0.00000000  0.34861200  1
  V  V25  1  0.66666667  0.33333333  0.47946533  1
  V  V26  1  0.00000000  0.00000000  0.65100300  1
  V  V27  1  0.66666667  0.33333333  0.68194533  1
  V  V28  1  0.33333333  0.66666667  0.81279867  1
  V  V29  1  0.66666667  0.33333333  0.98433633  1
  P  P30  1  0.37403333  0.04136367  0.08351067  1
  P  P31  1  0.66733033  0.62596667  0.08351067  1
  P  P32  1  0.95863633  0.33266967  0.08351067  1
  P  P33  1  0.70845767  0.99594633  0.25027433  1
  P  P34  1  0.00405367  0.71251133  0.25027433  1
  P  P35  1  0.28748867  0.29154233  0.25027433  1
  P  P36  1  0.04070000  0.37469700  0.41684400  1
  P  P37  1  0.33399700  0.95930000  0.41684400  1
  P  P38  1  0.62530300  0.66600300  0.41684400  1
  P  P39  1  0.37512433  0.32927967  0.58360767  1
  P  P40  1  0.67072033  0.04584467  0.58360767  1
  P  P41  1  0.95415533  0.62487567  0.58360767  1
  P  P42  1  0.70736667  0.70803033  0.75017733  1
  P  P43  1  0.00066367  0.29263333  0.75017733  1
  P  P44  1  0.29196967  0.99933633  0.75017733  1
  P  P45  1  0.04179100  0.66261300  0.91694100  1
  P  P46  1  0.33738700  0.37917800  0.91694100  1
  P  P47  1  0.62082200  0.95820900  0.91694100  1
  O  O48  1  0.42847100  0.18747000  0.03249400  1
  O  O49  1  0.42224567  0.89505933  0.06319933  1
  O  O50  1  0.47281367  0.57775433  0.06319933  1
  O  O51  1  0.75899900  0.57152900  0.03249400  1
  O  O52  1  0.81253000  0.24100100  0.03249400  1
  O  O53  1  0.46702933  0.12576567  0.13988367  1
  O  O54  1  0.79070700  0.83807000  0.08839700  1
  O  O55  1  0.65873633  0.53297067  0.13988367  1
  O  O56  1  0.10494067  0.52718633  0.06319933  1
  O  O57  1  0.04736300  0.20929300  0.08839700  1
  O  O58  1  0.87423433  0.34126367  0.13988367  1
  O  O59  1  0.16193000  0.95263700  0.08839700  1
  O  O60  1  0.49427667  0.38001933  0.24617833  1
  O  O61  1  0.80397900  0.99363200  0.19308400  1
  O  O62  1  0.61998067  0.11425733  0.24617833  1
  O  O63  1  0.56617200  0.79852600  0.26854200  1
  O  O64  1  0.00636800  0.81034700  0.19308400  1
  O  O65  1  0.88574267  0.50572333  0.24617833  1
  O  O66  1  0.18965300  0.19602100  0.19308400  1
  O  O67  1  0.85499733  0.08689567  0.30074267  1
  O  O68  1  0.91310433  0.76810167  0.30074267  1
  O  O69  1  0.20147400  0.76764600  0.26854200  1
  O  O70  1  0.23235400  0.43382800  0.26854200  1
  O  O71  1  0.23189833  0.14500267  0.30074267  1
  O  O72  1  0.09513767  0.52080333  0.36582733  1
  O  O73  1  0.08891233  0.22839267  0.39653267  1
  O  O74  1  0.13948033  0.91108767  0.39653267  1
  O  O75  1  0.42566567  0.90486233  0.36582733  1
  O  O76  1  0.47919667  0.57433433  0.36582733  1
  O  O77  1  0.13369600  0.45909900  0.47321700  1
  O  O78  1  0.45737367  0.17140333  0.42173033  1
  O  O79  1  0.32540300  0.86630400  0.47321700  1
  O  O80  1  0.77160733  0.86051967  0.39653267  1
  O  O81  1  0.71402967  0.54262633  0.42173033  1
  O  O82  1  0.54090100  0.67459700  0.47321700  1
  O  O83  1  0.82859667  0.28597033  0.42173033  1
  O  O84  1  0.16094333  0.71335267  0.57951167  1
  O  O85  1  0.47064567  0.32696533  0.52641733  1
  O  O86  1  0.28664733  0.44759067  0.57951167  1
  O  O87  1  0.23283867  0.13185933  0.60187533  1
  O  O88  1  0.67303467  0.14368033  0.52641733  1
  O  O89  1  0.55240933  0.83905667  0.57951167  1
  O  O90  1  0.85631967  0.52935433  0.52641733  1
  O  O91  1  0.52166400  0.42022900  0.63407600  1
  O  O92  1  0.57977100  0.10143500  0.63407600  1
  O  O93  1  0.86814067  0.10097933  0.60187533  1
  O  O94  1  0.89902067  0.76716133  0.60187533  1
  O  O95  1  0.89856500  0.47833600  0.63407600  1
  O  O96  1  0.76180433  0.85413667  0.69916067  1
  O  O97  1  0.75557900  0.56172600  0.72986600  1
  O  O98  1  0.80614700  0.24442100  0.72986600  1
  O  O99  1  0.09233233  0.23819567  0.69916067  1
  O  O100  1  0.14586333  0.90766767  0.69916067  1
  O  O101  1  0.80036267  0.79243233  0.80655033  1
  O  O102  1  0.12404033  0.50473667  0.75506367  1
  O  O103  1  0.99206967  0.19963733  0.80655033  1
  O  O104  1  0.43827400  0.19385300  0.72986600  1
  O  O105  1  0.38069633  0.87595967  0.75506367  1
  O  O106  1  0.20756767  0.00793033  0.80655033  1
  O  O107  1  0.49526333  0.61930367  0.75506367  1
  O  O108  1  0.82761000  0.04668600  0.91284500  1
  O  O109  1  0.13731233  0.66029867  0.85975067  1
  O  O110  1  0.95331400  0.78092400  0.91284500  1
  O  O111  1  0.89950533  0.46519267  0.93520867  1
  O  O112  1  0.33970133  0.47701367  0.85975067  1
  O  O113  1  0.21907600  0.17239000  0.91284500  1
  O  O114  1  0.52298633  0.86268767  0.85975067  1
  O  O115  1  0.18833067  0.75356233  0.96740933  1
  O  O116  1  0.24643767  0.43476833  0.96740933  1
  O  O117  1  0.53480733  0.43431267  0.93520867  1
  O  O118  1  0.56568733  0.10049467  0.93520867  1
  O  O119  1  0.56523167  0.81166933  0.96740933  1
