# generated using pymatgen
data_LiP3W2O13
_symmetry_space_group_name_H-M   'P 1'
_cell_length_a   10.84177400
_cell_length_b   14.20319200
_cell_length_c   8.90718895
_cell_angle_alpha   90.00000000
_cell_angle_beta   125.86712018
_cell_angle_gamma   90.00000000
_symmetry_Int_Tables_number   1
_chemical_formula_structural   LiP3W2O13
_chemical_formula_sum   'Li4 P12 W8 O52'
_cell_volume   1111.51318179
_cell_formula_units_Z   4
loop_
 _symmetry_equiv_pos_site_id
 _symmetry_equiv_pos_as_xyz
  1  'x, y, z'
loop_
 _atom_site_type_symbol
 _atom_site_label
 _atom_site_symmetry_multiplicity
 _atom_site_fract_x
 _atom_site_fract_y
 _atom_site_fract_z
 _atom_site_occupancy
  Li  Li0  1  0.25000000  0.75000000  0.50000000  1
  Li  Li1  1  0.25000000  0.25000000  0.00000000  1
  Li  Li2  1  0.75000000  0.25000000  0.50000000  1
  Li  Li3  1  0.75000000  0.75000000  0.00000000  1
  P  P4  1  0.50000000  0.01171800  0.25000000  1
  P  P5  1  0.44577850  0.70583350  0.06032500  1
  P  P6  1  0.44577850  0.29416650  0.56032500  1
  P  P7  1  0.55422150  0.70583350  0.43967500  1
  P  P8  1  0.55422150  0.29416650  0.93967500  1
  P  P9  1  0.50000000  0.98828200  0.75000000  1
  P  P10  1  0.00000000  0.51171800  0.25000000  1
  P  P11  1  0.94577850  0.20583350  0.06032500  1
  P  P12  1  0.94577850  0.79416650  0.56032500  1
  P  P13  1  0.05422150  0.20583350  0.43967500  1
  P  P14  1  0.05422150  0.79416650  0.93967500  1
  P  P15  1  0.00000000  0.48828200  0.75000000  1
  W  W16  1  0.74447900  0.08346100  0.17092100  1
  W  W17  1  0.25552100  0.08346100  0.32907900  1
  W  W18  1  0.74447900  0.91653900  0.67092100  1
  W  W19  1  0.25552100  0.91653900  0.82907900  1
  W  W20  1  0.24447900  0.58346100  0.17092100  1
  W  W21  1  0.75552100  0.58346100  0.32907900  1
  W  W22  1  0.24447900  0.41653900  0.67092100  1
  W  W23  1  0.75552100  0.41653900  0.82907900  1
  O  O24  1  0.62424100  0.22418000  0.09689000  1
  O  O25  1  0.44769800  0.94907400  0.08229000  1
  O  O26  1  0.83188100  0.13114300  0.03290200  1
  O  O27  1  0.36738550  0.07693150  0.20655900  1
  O  O28  1  0.82932450  0.97294850  0.23223900  1
  O  O29  1  0.59198050  0.66237350  0.09419900  1
  O  O30  1  0.37575900  0.22418000  0.40311000  1
  O  O31  1  0.17067550  0.97294850  0.26776100  1
  O  O32  1  0.59198050  0.33762650  0.59419900  1
  O  O33  1  0.63261450  0.07693150  0.29344100  1
  O  O34  1  0.50000000  0.76110600  0.25000000  1
  O  O35  1  0.44769800  0.05092600  0.58229000  1
  O  O36  1  0.83188100  0.86885700  0.53290200  1
  O  O37  1  0.16811900  0.13114300  0.46709800  1
  O  O38  1  0.55230200  0.94907400  0.41771000  1
  O  O39  1  0.50000000  0.23889400  0.75000000  1
  O  O40  1  0.36738550  0.92306850  0.70655900  1
  O  O41  1  0.40801950  0.66237350  0.40580100  1
  O  O42  1  0.82932450  0.02705150  0.73223900  1
  O  O43  1  0.62424100  0.77582000  0.59689000  1
  O  O44  1  0.40801950  0.33762650  0.90580100  1
  O  O45  1  0.17067550  0.02705150  0.76776100  1
  O  O46  1  0.63261450  0.92306850  0.79344100  1
  O  O47  1  0.16811900  0.86885700  0.96709800  1
  O  O48  1  0.55230200  0.05092600  0.91771000  1
  O  O49  1  0.37575900  0.77582000  0.90311000  1
  O  O50  1  0.12424100  0.72418000  0.09689000  1
  O  O51  1  0.94769800  0.44907400  0.08229000  1
  O  O52  1  0.33188100  0.63114300  0.03290200  1
  O  O53  1  0.86738550  0.57693150  0.20655900  1
  O  O54  1  0.32932450  0.47294850  0.23223900  1
  O  O55  1  0.09198050  0.16237350  0.09419900  1
  O  O56  1  0.87575900  0.72418000  0.40311000  1
  O  O57  1  0.67067550  0.47294850  0.26776100  1
  O  O58  1  0.09198050  0.83762650  0.59419900  1
  O  O59  1  0.13261450  0.57693150  0.29344100  1
  O  O60  1  0.00000000  0.26110600  0.25000000  1
  O  O61  1  0.94769800  0.55092600  0.58229000  1
  O  O62  1  0.33188100  0.36885700  0.53290200  1
  O  O63  1  0.66811900  0.63114300  0.46709800  1
  O  O64  1  0.05230200  0.44907400  0.41771000  1
  O  O65  1  0.00000000  0.73889400  0.75000000  1
  O  O66  1  0.86738550  0.42306850  0.70655900  1
  O  O67  1  0.90801950  0.16237350  0.40580100  1
  O  O68  1  0.32932450  0.52705150  0.73223900  1
  O  O69  1  0.12424100  0.27582000  0.59689000  1
  O  O70  1  0.90801950  0.83762650  0.90580100  1
  O  O71  1  0.67067550  0.52705150  0.76776100  1
  O  O72  1  0.13261450  0.42306850  0.79344100  1
  O  O73  1  0.66811900  0.36885700  0.96709800  1
  O  O74  1  0.05230200  0.55092600  0.91771000  1
  O  O75  1  0.87575900  0.27582000  0.90311000  1
