# generated using pymatgen
data_LiCuF3
_symmetry_space_group_name_H-M   'P 1'
_cell_length_a   6.99542000
_cell_length_b   7.40021600
_cell_length_c   8.76117900
_cell_angle_alpha   90.00000000
_cell_angle_beta   90.00000000
_cell_angle_gamma   90.00000000
_symmetry_Int_Tables_number   1
_chemical_formula_structural   LiCuF3
_chemical_formula_sum   'Li8 Cu8 F24'
_cell_volume   453.54537656
_cell_formula_units_Z   8
loop_
 _symmetry_equiv_pos_site_id
 _symmetry_equiv_pos_as_xyz
  1  'x, y, z'
loop_
 _atom_site_type_symbol
 _atom_site_label
 _atom_site_symmetry_multiplicity
 _atom_site_fract_x
 _atom_site_fract_y
 _atom_site_fract_z
 _atom_site_occupancy
  Li  Li0  1  0.28598300  0.75836400  0.50000000  1
  Li  Li1  1  0.71401700  0.75836400  0.50000000  1
  Li  Li2  1  0.50000000  0.01852900  0.50000000  1
  Li  Li3  1  0.50000000  0.48195400  0.00000000  1
  Li  Li4  1  0.78598300  0.25836400  0.50000000  1
  Li  Li5  1  0.21401700  0.25836400  0.50000000  1
  Li  Li6  1  0.00000000  0.51852900  0.50000000  1
  Li  Li7  1  0.00000000  0.98195400  0.00000000  1
  Cu  Cu8  1  0.50000000  0.00891100  0.16797500  1
  Cu  Cu9  1  0.50000000  0.00891100  0.83202500  1
  Cu  Cu10  1  0.50000000  0.49235700  0.31612000  1
  Cu  Cu11  1  0.50000000  0.49235700  0.68388000  1
  Cu  Cu12  1  0.00000000  0.50891100  0.16797500  1
  Cu  Cu13  1  0.00000000  0.50891100  0.83202500  1
  Cu  Cu14  1  0.00000000  0.99235700  0.31612000  1
  Cu  Cu15  1  0.00000000  0.99235700  0.68388000  1
  F  F16  1  0.18833300  0.00030600  0.50000000  1
  F  F17  1  0.19578450  0.00167350  0.16933900  1
  F  F18  1  0.19578450  0.00167350  0.83066100  1
  F  F19  1  0.50000000  0.82121500  0.64954600  1
  F  F20  1  0.50000000  0.82121500  0.35045400  1
  F  F21  1  0.50000000  0.84105300  0.00000000  1
  F  F22  1  0.50000000  0.18958700  0.00000000  1
  F  F23  1  0.50000000  0.18796700  0.65914500  1
  F  F24  1  0.50000000  0.18796700  0.34085500  1
  F  F25  1  0.80421550  0.00167350  0.83066100  1
  F  F26  1  0.80421550  0.00167350  0.16933900  1
  F  F27  1  0.81166700  0.00030600  0.50000000  1
  F  F28  1  0.68833300  0.50030600  0.50000000  1
  F  F29  1  0.69578450  0.50167350  0.16933900  1
  F  F30  1  0.69578450  0.50167350  0.83066100  1
  F  F31  1  0.00000000  0.32121500  0.64954600  1
  F  F32  1  0.00000000  0.32121500  0.35045400  1
  F  F33  1  0.00000000  0.34105300  0.00000000  1
  F  F34  1  0.00000000  0.68958700  0.00000000  1
  F  F35  1  0.00000000  0.68796700  0.65914500  1
  F  F36  1  0.00000000  0.68796700  0.34085500  1
  F  F37  1  0.30421550  0.50167350  0.83066100  1
  F  F38  1  0.30421550  0.50167350  0.16933900  1
  F  F39  1  0.31166700  0.50030600  0.50000000  1
