# generated using pymatgen
data_Li4Mn3Co3(CuO8)2
_symmetry_space_group_name_H-M   'P 1'
_cell_length_a   9.94431000
_cell_length_b   5.73793800
_cell_length_c   9.54958012
_cell_angle_alpha   90.00000000
_cell_angle_beta   90.14859775
_cell_angle_gamma   90.00000000
_symmetry_Int_Tables_number   1
_chemical_formula_structural   Li4Mn3Co3(CuO8)2
_chemical_formula_sum   'Li8 Mn6 Co6 Cu4 O32'
_cell_volume   544.89562588
_cell_formula_units_Z   2
loop_
 _symmetry_equiv_pos_site_id
 _symmetry_equiv_pos_as_xyz
  1  'x, y, z'
loop_
 _atom_site_type_symbol
 _atom_site_label
 _atom_site_symmetry_multiplicity
 _atom_site_fract_x
 _atom_site_fract_y
 _atom_site_fract_z
 _atom_site_occupancy
  Li  Li0  1  0.66491600  0.00000000  0.10028200  1
  Li  Li1  1  0.50444100  0.50000000  0.00193800  1
  Li  Li2  1  0.50538200  0.50000000  0.50617400  1
  Li  Li3  1  0.83170600  0.50000000  0.60567000  1
  Li  Li4  1  0.16491600  0.50000000  0.10028200  1
  Li  Li5  1  0.00444100  0.00000000  0.00193800  1
  Li  Li6  1  0.00538200  0.00000000  0.50617400  1
  Li  Li7  1  0.33170600  0.00000000  0.60567000  1
  Mn  Mn8  1  0.83080300  0.00000000  0.78581500  1
  Mn  Mn9  1  0.91560100  0.25388300  0.28447500  1
  Mn  Mn10  1  0.91560100  0.74611700  0.28447500  1
  Mn  Mn11  1  0.33080300  0.50000000  0.78581500  1
  Mn  Mn12  1  0.41560100  0.75388300  0.28447500  1
  Mn  Mn13  1  0.41560100  0.24611700  0.28447500  1
  Co  Co14  1  0.58439550  0.75378650  0.78667900  1
  Co  Co15  1  0.58439550  0.24621350  0.78667900  1
  Co  Co16  1  0.66878400  0.50000000  0.28776800  1
  Co  Co17  1  0.08439550  0.25378650  0.78667900  1
  Co  Co18  1  0.08439550  0.74621350  0.78667900  1
  Co  Co19  1  0.16878400  0.00000000  0.28776800  1
  Cu  Cu20  1  0.66688300  0.00000000  0.51658500  1
  Cu  Cu21  1  0.83238200  0.50000000  0.00331900  1
  Cu  Cu22  1  0.16688300  0.50000000  0.51658500  1
  Cu  Cu23  1  0.33238200  0.00000000  0.00331900  1
  O  O24  1  0.58373800  0.74012200  0.39258500  1
  O  O25  1  0.51627700  0.00000000  0.67501200  1
  O  O26  1  0.66711900  0.00000000  0.89141300  1
  O  O27  1  0.99989400  0.00000000  0.69133500  1
  O  O28  1  0.50151700  0.50000000  0.18864000  1
  O  O29  1  0.58373800  0.25987800  0.39258500  1
  O  O30  1  0.73830150  0.77688350  0.66647900  1
  O  O31  1  0.73830150  0.22311650  0.66647900  1
  O  O32  1  0.65909300  0.50000000  0.89210300  1
  O  O33  1  0.84185400  0.00000000  0.39485400  1
  O  O34  1  0.75603850  0.28010650  0.16864400  1
  O  O35  1  0.75603850  0.71989350  0.16864400  1
  O  O36  1  0.83401800  0.50000000  0.39192800  1
  O  O37  1  0.92039200  0.23964200  0.89723000  1
  O  O38  1  0.98224100  0.50000000  0.16677400  1
  O  O39  1  0.92039200  0.76035800  0.89723000  1
  O  O40  1  0.08373800  0.24012200  0.39258500  1
  O  O41  1  0.01627700  0.50000000  0.67501200  1
  O  O42  1  0.16711900  0.50000000  0.89141300  1
  O  O43  1  0.49989400  0.50000000  0.69133500  1
  O  O44  1  0.00151700  0.00000000  0.18864000  1
  O  O45  1  0.08373800  0.75987800  0.39258500  1
  O  O46  1  0.23830150  0.27688350  0.66647900  1
  O  O47  1  0.23830150  0.72311650  0.66647900  1
  O  O48  1  0.15909300  0.00000000  0.89210300  1
  O  O49  1  0.34185400  0.50000000  0.39485400  1
  O  O50  1  0.25603850  0.78010650  0.16864400  1
  O  O51  1  0.25603850  0.21989350  0.16864400  1
  O  O52  1  0.33401800  0.00000000  0.39192800  1
  O  O53  1  0.42039200  0.73964200  0.89723000  1
  O  O54  1  0.48224100  0.00000000  0.16677400  1
  O  O55  1  0.42039200  0.26035800  0.89723000  1
