# generated using pymatgen
data_LiFeSiO4
_symmetry_space_group_name_H-M   'P 1'
_cell_length_a   5.73244600
_cell_length_b   5.73244600
_cell_length_c   8.06375500
_cell_angle_alpha   90.00000000
_cell_angle_beta   90.00000000
_cell_angle_gamma   90.00000000
_symmetry_Int_Tables_number   1
_chemical_formula_structural   LiFeSiO4
_chemical_formula_sum   'Li4 Fe4 Si4 O16'
_cell_volume   264.98254621
_cell_formula_units_Z   4
loop_
 _symmetry_equiv_pos_site_id
 _symmetry_equiv_pos_as_xyz
  1  'x, y, z'
loop_
 _atom_site_type_symbol
 _atom_site_label
 _atom_site_symmetry_multiplicity
 _atom_site_fract_x
 _atom_site_fract_y
 _atom_site_fract_z
 _atom_site_occupancy
  Li  Li0  1  0.50000000  0.72077450  0.00000000  1
  Li  Li1  1  0.50000000  0.27922550  0.50000000  1
  Li  Li2  1  0.72077450  0.50000000  0.25000000  1
  Li  Li3  1  0.27922550  0.50000000  0.75000000  1
  Fe  Fe4  1  0.00000000  0.27452250  0.50000000  1
  Fe  Fe5  1  0.27452250  0.00000000  0.75000000  1
  Fe  Fe6  1  0.72547750  0.00000000  0.25000000  1
  Fe  Fe7  1  0.00000000  0.72547750  0.00000000  1
  Si  Si8  1  0.75643300  0.75643300  0.62500000  1
  Si  Si9  1  0.75643300  0.24356700  0.87500000  1
  Si  Si10  1  0.24356700  0.75643300  0.37500000  1
  Si  Si11  1  0.24356700  0.24356700  0.12500000  1
  O  O12  1  0.48254750  0.75839150  0.26047900  1
  O  O13  1  0.48254750  0.24160850  0.23952100  1
  O  O14  1  0.75839150  0.48254750  0.98952100  1
  O  O15  1  0.75839150  0.51745250  0.51047900  1
  O  O16  1  0.24160850  0.51745250  0.48952100  1
  O  O17  1  0.24160850  0.48254750  0.01047900  1
  O  O18  1  0.51745250  0.75839150  0.73952100  1
  O  O19  1  0.51745250  0.24160850  0.76047900  1
  O  O20  1  0.75935350  0.99486450  0.50126800  1
  O  O21  1  0.75935350  0.00513550  0.99873200  1
  O  O22  1  0.00513550  0.75935350  0.25126800  1
  O  O23  1  0.00513550  0.24064650  0.24873200  1
  O  O24  1  0.99486450  0.75935350  0.74873200  1
  O  O25  1  0.99486450  0.24064650  0.75126800  1
  O  O26  1  0.24064650  0.99486450  0.49873200  1
  O  O27  1  0.24064650  0.00513550  0.00126800  1
