# generated using pymatgen
data_V3O5F
_symmetry_space_group_name_H-M   'P 1'
_cell_length_a   8.94170200
_cell_length_b   6.47689800
_cell_length_c   7.39767213
_cell_angle_alpha   90.00000000
_cell_angle_beta   115.21236435
_cell_angle_gamma   90.00000000
_symmetry_Int_Tables_number   1
_chemical_formula_structural   V3O5F
_chemical_formula_sum   'V12 O20 F4'
_cell_volume   387.61787126
_cell_formula_units_Z   4
loop_
 _symmetry_equiv_pos_site_id
 _symmetry_equiv_pos_as_xyz
  1  'x, y, z'
loop_
 _atom_site_type_symbol
 _atom_site_label
 _atom_site_symmetry_multiplicity
 _atom_site_fract_x
 _atom_site_fract_y
 _atom_site_fract_z
 _atom_site_occupancy
  V  V0  1  0.32636300  0.50000000  0.35444100  1
  V  V1  1  0.00000000  0.50000000  0.50000000  1
  V  V2  1  0.31128800  0.50000000  0.82463800  1
  V  V3  1  0.00000000  0.50000000  0.00000000  1
  V  V4  1  0.67363700  0.50000000  0.64555900  1
  V  V5  1  0.68871200  0.50000000  0.17536200  1
  V  V6  1  0.82636300  0.00000000  0.35444100  1
  V  V7  1  0.50000000  0.00000000  0.50000000  1
  V  V8  1  0.81128800  0.00000000  0.82463800  1
  V  V9  1  0.50000000  0.00000000  0.00000000  1
  V  V10  1  0.17363700  0.00000000  0.64555900  1
  V  V11  1  0.18871200  0.00000000  0.17536200  1
  O  O12  1  0.00000000  0.19963400  0.50000000  1
  O  O13  1  0.83511700  0.69937600  0.83648300  1
  O  O14  1  0.89650600  0.50000000  0.19196900  1
  O  O15  1  0.23757700  0.50000000  0.54240800  1
  O  O16  1  0.76242300  0.50000000  0.45759200  1
  O  O17  1  0.10349400  0.50000000  0.80803100  1
  O  O18  1  0.16488300  0.30062400  0.16351700  1
  O  O19  1  0.00000000  0.80036600  0.50000000  1
  O  O20  1  0.83511700  0.30062400  0.83648300  1
  O  O21  1  0.16488300  0.69937600  0.16351700  1
  O  O22  1  0.50000000  0.69963400  0.50000000  1
  O  O23  1  0.33511700  0.19937600  0.83648300  1
  O  O24  1  0.39650600  0.00000000  0.19196900  1
  O  O25  1  0.73757700  0.00000000  0.54240800  1
  O  O26  1  0.26242300  0.00000000  0.45759200  1
  O  O27  1  0.60349400  0.00000000  0.80803100  1
  O  O28  1  0.66488300  0.80062400  0.16351700  1
  O  O29  1  0.50000000  0.30036600  0.50000000  1
  O  O30  1  0.33511700  0.80062400  0.83648300  1
  O  O31  1  0.66488300  0.19937600  0.16351700  1
  F  F32  1  0.56181500  0.50000000  0.86981400  1
  F  F33  1  0.43818500  0.50000000  0.13018600  1
  F  F34  1  0.06181500  0.00000000  0.86981400  1
  F  F35  1  0.93818500  0.00000000  0.13018600  1
