# generated using pymatgen
data_SrCoBiRuO6
_symmetry_space_group_name_H-M   'P 1'
_cell_length_a   5.69495400
_cell_length_b   5.65158400
_cell_length_c   9.67983762
_cell_angle_alpha   90.00000000
_cell_angle_beta   125.52050332
_cell_angle_gamma   90.00000000
_symmetry_Int_Tables_number   1
_chemical_formula_structural   SrCoBiRuO6
_chemical_formula_sum   'Sr2 Co2 Bi2 Ru2 O12'
_cell_volume   253.57335457
_cell_formula_units_Z   2
loop_
 _symmetry_equiv_pos_site_id
 _symmetry_equiv_pos_as_xyz
  1  'x, y, z'
loop_
 _atom_site_type_symbol
 _atom_site_label
 _atom_site_symmetry_multiplicity
 _atom_site_fract_x
 _atom_site_fract_y
 _atom_site_fract_z
 _atom_site_occupancy
  Sr  Sr0  1  0.75062500  0.72602600  0.74959600  1
  Sr  Sr1  1  0.75062500  0.27397400  0.24959600  1
  Co  Co2  1  0.49674200  0.74732400  0.99951000  1
  Co  Co3  1  0.49674200  0.25267600  0.49951000  1
  Bi  Bi4  1  0.21619200  0.21113400  0.75094300  1
  Bi  Bi5  1  0.21619200  0.78886600  0.25094300  1
  Ru  Ru6  1  0.00098200  0.74745400  0.50041100  1
  Ru  Ru7  1  0.00098200  0.25254600  0.00041100  1
  O  O8  1  0.31515000  0.23076100  0.24307200  1
  O  O9  1  0.18300900  0.99421900  0.94869800  1
  O  O10  1  0.79751000  0.98458200  0.54919900  1
  O  O11  1  0.22762100  0.46213900  0.95074400  1
  O  O12  1  0.84101200  0.47113200  0.54907700  1
  O  O13  1  0.67115600  0.73834500  0.25874900  1
  O  O14  1  0.31515000  0.76923900  0.74307200  1
  O  O15  1  0.18300900  0.00578100  0.44869800  1
  O  O16  1  0.79751000  0.01541800  0.04919900  1
  O  O17  1  0.84101200  0.52886800  0.04907700  1
  O  O18  1  0.22762100  0.53786100  0.45074400  1
  O  O19  1  0.67115600  0.26165500  0.75874900  1
