# generated using pymatgen
data_Li4CrFe3O8
_symmetry_space_group_name_H-M   'P 1'
_cell_length_a   10.38785000
_cell_length_b   5.96335600
_cell_length_c   5.16863748
_cell_angle_alpha   90.00000000
_cell_angle_beta   109.41884658
_cell_angle_gamma   90.00000000
_symmetry_Int_Tables_number   1
_chemical_formula_structural   Li4CrFe3O8
_chemical_formula_sum   'Li8 Cr2 Fe6 O16'
_cell_volume   301.96483500
_cell_formula_units_Z   2
loop_
 _symmetry_equiv_pos_site_id
 _symmetry_equiv_pos_as_xyz
  1  'x, y, z'
loop_
 _atom_site_type_symbol
 _atom_site_label
 _atom_site_symmetry_multiplicity
 _atom_site_fract_x
 _atom_site_fract_y
 _atom_site_fract_z
 _atom_site_occupancy
  Li  Li0  1  0.25000000  0.75000000  0.00000000  1
  Li  Li1  1  0.25000000  0.25000000  0.00000000  1
  Li  Li2  1  0.25055300  0.50000000  0.50211700  1
  Li  Li3  1  0.24944700  0.00000000  0.49788300  1
  Li  Li4  1  0.75000000  0.25000000  0.00000000  1
  Li  Li5  1  0.75000000  0.75000000  0.00000000  1
  Li  Li6  1  0.75055300  0.00000000  0.50211700  1
  Li  Li7  1  0.74944700  0.50000000  0.49788300  1
  Cr  Cr8  1  0.00000000  0.00000000  0.00000000  1
  Cr  Cr9  1  0.50000000  0.50000000  0.00000000  1
  Fe  Fe10  1  0.00000000  0.50000000  0.00000000  1
  Fe  Fe11  1  0.00000000  0.75015500  0.50000000  1
  Fe  Fe12  1  0.00000000  0.24984500  0.50000000  1
  Fe  Fe13  1  0.50000000  0.00000000  0.00000000  1
  Fe  Fe14  1  0.50000000  0.25015500  0.50000000  1
  Fe  Fe15  1  0.50000000  0.74984500  0.50000000  1
  O  O16  1  0.38620600  0.25103600  0.75812700  1
  O  O17  1  0.38620600  0.74896400  0.75812700  1
  O  O18  1  0.38653800  0.50000000  0.25545000  1
  O  O19  1  0.11467300  0.50000000  0.74214700  1
  O  O20  1  0.11346200  0.00000000  0.74455000  1
  O  O21  1  0.11379400  0.75103600  0.24187300  1
  O  O22  1  0.38532700  0.00000000  0.25785300  1
  O  O23  1  0.11379400  0.24896400  0.24187300  1
  O  O24  1  0.88620600  0.75103600  0.75812700  1
  O  O25  1  0.88620600  0.24896400  0.75812700  1
  O  O26  1  0.88653800  0.00000000  0.25545000  1
  O  O27  1  0.61467300  0.00000000  0.74214700  1
  O  O28  1  0.61346200  0.50000000  0.74455000  1
  O  O29  1  0.61379400  0.25103600  0.24187300  1
  O  O30  1  0.88532700  0.50000000  0.25785300  1
  O  O31  1  0.61379400  0.74896400  0.24187300  1
