# generated using pymatgen
data_V2NiO6
_symmetry_space_group_name_H-M   'P 1'
_cell_length_a   10.07149150
_cell_length_b   9.07978253
_cell_length_c   5.85650471
_cell_angle_alpha   90.00000000
_cell_angle_beta   110.98979050
_cell_angle_gamma   90.00000000
_symmetry_Int_Tables_number   1
_chemical_formula_structural   V2NiO6
_chemical_formula_sum   'V8 Ni4 O24'
_cell_volume   500.02206526
_cell_formula_units_Z   4
loop_
 _symmetry_equiv_pos_site_id
 _symmetry_equiv_pos_as_xyz
  1  'x, y, z'
loop_
 _atom_site_type_symbol
 _atom_site_label
 _atom_site_symmetry_multiplicity
 _atom_site_fract_x
 _atom_site_fract_y
 _atom_site_fract_z
 _atom_site_occupancy
  V  V0  1  0.20380400  0.59159300  0.24410600  1
  V  V1  1  0.79619600  0.59159300  0.25589400  1
  V  V2  1  0.20380400  0.40840700  0.74410600  1
  V  V3  1  0.79619600  0.40840700  0.75589400  1
  V  V4  1  0.70380400  0.09159300  0.24410600  1
  V  V5  1  0.29619600  0.09159300  0.25589400  1
  V  V6  1  0.70380400  0.90840700  0.74410600  1
  V  V7  1  0.29619600  0.90840700  0.75589400  1
  Ni  Ni8  1  0.00000000  0.91577100  0.25000000  1
  Ni  Ni9  1  0.00000000  0.08422900  0.75000000  1
  Ni  Ni10  1  0.50000000  0.41577100  0.25000000  1
  Ni  Ni11  1  0.50000000  0.58422900  0.75000000  1
  O  O12  1  0.38640600  0.57904900  0.36320000  1
  O  O13  1  0.38640600  0.42095100  0.86320000  1
  O  O14  1  0.61359400  0.57904900  0.13680000  1
  O  O15  1  0.61359400  0.42095100  0.63680000  1
  O  O16  1  0.14638400  0.76604000  0.22546600  1
  O  O17  1  0.85361600  0.76604000  0.27453400  1
  O  O18  1  0.14638400  0.23396000  0.72546600  1
  O  O19  1  0.85361600  0.23396000  0.77453400  1
  O  O20  1  0.13870200  0.49028000  0.44537300  1
  O  O21  1  0.13870200  0.50972000  0.94537300  1
  O  O22  1  0.86129800  0.49028000  0.05462700  1
  O  O23  1  0.86129800  0.50972000  0.55462700  1
  O  O24  1  0.88640600  0.07904900  0.36320000  1
  O  O25  1  0.88640600  0.92095100  0.86320000  1
  O  O26  1  0.11359400  0.07904900  0.13680000  1
  O  O27  1  0.11359400  0.92095100  0.63680000  1
  O  O28  1  0.64638400  0.26604000  0.22546600  1
  O  O29  1  0.35361600  0.26604000  0.27453400  1
  O  O30  1  0.64638400  0.73396000  0.72546600  1
  O  O31  1  0.35361600  0.73396000  0.77453400  1
  O  O32  1  0.63870200  0.99028000  0.44537300  1
  O  O33  1  0.63870200  0.00972000  0.94537300  1
  O  O34  1  0.36129800  0.99028000  0.05462700  1
  O  O35  1  0.36129800  0.00972000  0.55462700  1
