# generated using pymatgen
data_LiVSiO4
_symmetry_space_group_name_H-M   'P 1'
_cell_length_a   5.63001787
_cell_length_b   6.39466545
_cell_length_c   9.33677658
_cell_angle_alpha   75.79397570
_cell_angle_beta   80.27496617
_cell_angle_gamma   73.95118781
_symmetry_Int_Tables_number   1
_chemical_formula_structural   LiVSiO4
_chemical_formula_sum   'Li4 V4 Si4 O16'
_cell_volume   311.31541614
_cell_formula_units_Z   4
loop_
 _symmetry_equiv_pos_site_id
 _symmetry_equiv_pos_as_xyz
  1  'x, y, z'
loop_
 _atom_site_type_symbol
 _atom_site_label
 _atom_site_symmetry_multiplicity
 _atom_site_fract_x
 _atom_site_fract_y
 _atom_site_fract_z
 _atom_site_occupancy
  Li  Li0  1  0.80361500  0.38337200  0.86215900  1
  Li  Li1  1  0.30176100  0.43176100  0.77939800  1
  Li  Li2  1  0.69823900  0.56823900  0.22060200  1
  Li  Li3  1  0.19638500  0.61662800  0.13784100  1
  V  V4  1  0.29255000  0.92888800  0.79384300  1
  V  V5  1  0.78483900  0.16524300  0.57447500  1
  V  V6  1  0.21516100  0.83475700  0.42552500  1
  V  V7  1  0.70745000  0.07111200  0.20615700  1
  Si  Si8  1  0.83531700  0.82784000  0.90456700  1
  Si  Si9  1  0.67771900  0.70948000  0.53758200  1
  Si  Si10  1  0.32228100  0.29052000  0.46241800  1
  Si  Si11  1  0.16468300  0.17216000  0.09543300  1
  O  O12  1  0.63565800  0.72650500  0.85314000  1
  O  O13  1  0.13132700  0.67610700  0.89929400  1
  O  O14  1  0.24643100  0.14239500  0.92404300  1
  O  O15  1  0.88423400  0.05969100  0.78735900  1
  O  O16  1  0.87396200  0.84650000  0.55346400  1
  O  O17  1  0.38286000  0.77762400  0.61434900  1
  O  O18  1  0.77894000  0.45140800  0.61224200  1
  O  O19  1  0.38659500  0.21751600  0.63906400  1
  O  O20  1  0.61340500  0.78248400  0.36093600  1
  O  O21  1  0.22106000  0.54859200  0.38775800  1
  O  O22  1  0.61714000  0.22237600  0.38565100  1
  O  O23  1  0.12603800  0.15350000  0.44653600  1
  O  O24  1  0.11576600  0.94030900  0.21264100  1
  O  O25  1  0.75356900  0.85760500  0.07595700  1
  O  O26  1  0.86867300  0.32389300  0.10070600  1
  O  O27  1  0.36434200  0.27349500  0.14686000  1
