# generated using pymatgen
data_FeOF
_symmetry_space_group_name_H-M   'P 1'
_cell_length_a   14.16119400
_cell_length_b   3.11532300
_cell_length_c   14.25566617
_cell_angle_alpha   90.00000000
_cell_angle_beta   90.07488096
_cell_angle_gamma   90.00000000
_symmetry_Int_Tables_number   1
_chemical_formula_structural   FeOF
_chemical_formula_sum   'Fe18 O18 F18'
_cell_volume   628.91231639
_cell_formula_units_Z   18
loop_
 _symmetry_equiv_pos_site_id
 _symmetry_equiv_pos_as_xyz
  1  'x, y, z'
loop_
 _atom_site_type_symbol
 _atom_site_label
 _atom_site_symmetry_multiplicity
 _atom_site_fract_x
 _atom_site_fract_y
 _atom_site_fract_z
 _atom_site_occupancy
  Fe  Fe0  1  0.01338500  0.00000000  0.00123400  1
  Fe  Fe1  1  0.00904600  0.00000000  0.67236300  1
  Fe  Fe2  1  0.01373900  0.00000000  0.33681500  1
  Fe  Fe3  1  0.15289800  0.50000000  0.83448400  1
  Fe  Fe4  1  0.15132400  0.50000000  0.50541300  1
  Fe  Fe5  1  0.15302200  0.50000000  0.16891400  1
  Fe  Fe6  1  0.34567300  0.00000000  0.00217200  1
  Fe  Fe7  1  0.34498800  0.00000000  0.66841500  1
  Fe  Fe8  1  0.34338400  0.00000000  0.33816300  1
  Fe  Fe9  1  0.48699500  0.50000000  0.50284000  1
  Fe  Fe10  1  0.48578400  0.50000000  0.83439600  1
  Fe  Fe11  1  0.48428000  0.50000000  0.17150200  1
  Fe  Fe12  1  0.67659600  0.00000000  0.00510000  1
  Fe  Fe13  1  0.68040100  0.00000000  0.66968800  1
  Fe  Fe14  1  0.67968200  0.00000000  0.33635600  1
  Fe  Fe15  1  0.84119000  0.50000000  0.81536500  1
  Fe  Fe16  1  0.82091000  0.50000000  0.50285800  1
  Fe  Fe17  1  0.82194400  0.50000000  0.16988900  1
  O  O18  1  0.06782100  0.50000000  0.72998900  1
  O  O19  1  0.06414600  0.50000000  0.39874900  1
  O  O20  1  0.06469400  0.50000000  0.06420600  1
  O  O21  1  0.10086000  0.00000000  0.89734600  1
  O  O22  1  0.10023700  0.00000000  0.56601300  1
  O  O23  1  0.10153000  0.00000000  0.23120800  1
  O  O24  1  0.39759800  0.50000000  0.73069700  1
  O  O25  1  0.39757500  0.50000000  0.39838800  1
  O  O26  1  0.39837800  0.50000000  0.06465700  1
  O  O27  1  0.43632500  0.00000000  0.89876500  1
  O  O28  1  0.43487700  0.00000000  0.56462300  1
  O  O29  1  0.43323200  0.00000000  0.23283500  1
  O  O30  1  0.72975500  0.50000000  0.73430800  1
  O  O31  1  0.73175800  0.50000000  0.39761900  1
  O  O32  1  0.73310200  0.50000000  0.06152200  1
  O  O33  1  0.76773600  0.00000000  0.56475700  1
  O  O34  1  0.76717700  0.00000000  0.22979200  1
  O  O35  1  0.90141200  0.00000000  0.76439600  1
  F  F36  1  0.23284900  0.00000000  0.76667800  1
  F  F37  1  0.23120900  0.00000000  0.43493400  1
  F  F38  1  0.23228000  0.00000000  0.10038400  1
  F  F39  1  0.26798200  0.50000000  0.93372900  1
  F  F40  1  0.26696700  0.50000000  0.26760000  1
  F  F41  1  0.26771800  0.50000000  0.60088500  1
  F  F42  1  0.56506900  0.00000000  0.76720900  1
  F  F43  1  0.56555500  0.00000000  0.43334900  1
  F  F44  1  0.56631900  0.00000000  0.09969700  1
  F  F45  1  0.60471500  0.50000000  0.93312100  1
  F  F46  1  0.60098400  0.50000000  0.60069900  1
  F  F47  1  0.60061700  0.50000000  0.26656100  1
  F  F48  1  0.76940100  0.00000000  0.89697000  1
  F  F49  1  0.89798500  0.00000000  0.43246000  1
  F  F50  1  0.89827600  0.00000000  0.10097300  1
  F  F51  1  0.93072500  0.50000000  0.93647700  1
  F  F52  1  0.93388800  0.50000000  0.59586000  1
  F  F53  1  0.93400900  0.50000000  0.26657800  1
