# generated using pymatgen
data_Li2V4CrCuO12
_symmetry_space_group_name_H-M   'P 1'
_cell_length_a   10.33011200
_cell_length_b   9.07241800
_cell_length_c   5.81327818
_cell_angle_alpha   90.00000000
_cell_angle_beta   111.14043950
_cell_angle_gamma   90.00000000
_symmetry_Int_Tables_number   1
_chemical_formula_structural   Li2V4CrCuO12
_chemical_formula_sum   'Li4 V8 Cr2 Cu2 O24'
_cell_volume   508.14867671
_cell_formula_units_Z   2
loop_
 _symmetry_equiv_pos_site_id
 _symmetry_equiv_pos_as_xyz
  1  'x, y, z'
loop_
 _atom_site_type_symbol
 _atom_site_label
 _atom_site_symmetry_multiplicity
 _atom_site_fract_x
 _atom_site_fract_y
 _atom_site_fract_z
 _atom_site_occupancy
  Li  Li0  1  0.00000000  0.23476100  0.00000000  1
  Li  Li1  1  0.00000000  0.75049600  0.50000000  1
  Li  Li2  1  0.50000000  0.73476100  0.00000000  1
  Li  Li3  1  0.50000000  0.25049600  0.50000000  1
  V  V4  1  0.20554150  0.40014950  0.48269400  1
  V  V5  1  0.20413850  0.59542750  0.98794900  1
  V  V6  1  0.79445850  0.40014950  0.51730600  1
  V  V7  1  0.79586150  0.59542750  0.01205100  1
  V  V8  1  0.70554150  0.90014950  0.48269400  1
  V  V9  1  0.70413850  0.09542750  0.98794900  1
  V  V10  1  0.29445850  0.90014950  0.51730600  1
  V  V11  1  0.29586150  0.09542750  0.01205100  1
  Cr  Cr12  1  0.00000000  0.08303200  0.50000000  1
  Cr  Cr13  1  0.50000000  0.58303200  0.50000000  1
  Cu  Cu14  1  0.00000000  0.90230500  0.00000000  1
  Cu  Cu15  1  0.50000000  0.40230500  0.00000000  1
  O  O16  1  0.39083850  0.41355050  0.58301600  1
  O  O17  1  0.12724650  0.22717250  0.41935700  1
  O  O18  1  0.38775150  0.59548550  0.12440700  1
  O  O19  1  0.14465250  0.51320650  0.69197700  1
  O  O20  1  0.87275350  0.22717250  0.58064300  1
  O  O21  1  0.13403750  0.49942050  0.18095100  1
  O  O22  1  0.85534750  0.51320650  0.30802300  1
  O  O23  1  0.14008500  0.77029200  0.93747600  1
  O  O24  1  0.86596250  0.49942050  0.81904900  1
  O  O25  1  0.60916150  0.41355050  0.41698400  1
  O  O26  1  0.85991500  0.77029200  0.06252400  1
  O  O27  1  0.61224850  0.59548550  0.87559300  1
  O  O28  1  0.89083850  0.91355050  0.58301600  1
  O  O29  1  0.62724650  0.72717250  0.41935700  1
  O  O30  1  0.88775150  0.09548550  0.12440700  1
  O  O31  1  0.64465250  0.01320650  0.69197700  1
  O  O32  1  0.37275350  0.72717250  0.58064300  1
  O  O33  1  0.63403750  0.99942050  0.18095100  1
  O  O34  1  0.35534750  0.01320650  0.30802300  1
  O  O35  1  0.64008500  0.27029200  0.93747600  1
  O  O36  1  0.36596250  0.99942050  0.81904900  1
  O  O37  1  0.10916150  0.91355050  0.41698400  1
  O  O38  1  0.35991500  0.27029200  0.06252400  1
  O  O39  1  0.11224850  0.09548550  0.87559300  1
