# generated using pymatgen
data_Li7Ni(O2F)2
_symmetry_space_group_name_H-M   'P 1'
_cell_length_a   5.35613720
_cell_length_b   5.63707417
_cell_length_c   10.07127839
_cell_angle_alpha   105.81951502
_cell_angle_beta   85.88190950
_cell_angle_gamma   115.99099337
_symmetry_Int_Tables_number   1
_chemical_formula_structural   Li7Ni(O2F)2
_chemical_formula_sum   'Li14 Ni2 O8 F4'
_cell_volume   262.57587188
_cell_formula_units_Z   2
loop_
 _symmetry_equiv_pos_site_id
 _symmetry_equiv_pos_as_xyz
  1  'x, y, z'
loop_
 _atom_site_type_symbol
 _atom_site_label
 _atom_site_symmetry_multiplicity
 _atom_site_fract_x
 _atom_site_fract_y
 _atom_site_fract_z
 _atom_site_occupancy
  Li  Li0  1  0.05710719  0.96319523  0.77304682  1
  Li  Li1  1  0.47374514  0.37810280  0.25404530  1
  Li  Li2  1  0.54227954  0.05669979  0.61567907  1
  Li  Li3  1  0.96602668  0.42745446  0.88494318  1
  Li  Li4  1  0.04843463  0.78296628  0.55776852  1
  Li  Li5  1  0.51709294  0.27999905  0.03791319  1
  Li  Li6  1  0.95633037  0.65157762  0.32322904  1
  Li  Li7  1  0.48421144  0.76131707  0.93942268  1
  Li  Li8  1  0.98034338  0.22545140  0.47293273  1
  Li  Li9  1  0.98184527  0.50510784  0.10737399  1
  Li  Li10  1  0.49503578  0.97022865  0.38358027  1
  Li  Li11  1  0.46748132  0.53606483  0.72098437  1
  Li  Li12  1  0.98769413  0.09673007  0.24881043  1
  Li  Li13  1  0.50324695  0.85085884  0.16327541  1
  Ni  Ni14  1  0.00249252  0.96001023  0.04287166  1
  Ni  Ni15  1  0.51108522  0.50626413  0.49164310  1
  O  O16  1  0.26165802  0.17564680  0.60237766  1
  O  O17  1  0.28024751  0.03661057  0.19773955  1
  O  O18  1  0.17146298  0.80630208  0.97102728  1
  O  O19  1  0.66748688  0.31953860  0.43462913  1
  O  O20  1  0.69571601  0.63046032  0.10774454  1
  O  O21  1  0.34236088  0.69024145  0.53735153  1
  O  O22  1  0.82040539  0.16436749  0.06221132  1
  O  O23  1  0.77879309  0.84044030  0.39197722  1
  F  F24  1  0.85459855  0.60114805  0.72121701  1
  F  F25  1  0.29688455  0.39051701  0.88943345  1
  F  F26  1  0.69714596  0.94601877  0.78654412  1
  F  F27  1  0.15878968  0.44668228  0.28022544  1
