# generated using pymatgen
data_Li6CoOF6
_symmetry_space_group_name_H-M   'P 1'
_cell_length_a   2.90385579
_cell_length_b   2.90385579
_cell_length_c   29.24058858
_cell_angle_alpha   90.00000000
_cell_angle_beta   90.00000000
_cell_angle_gamma   90.00000000
_symmetry_Int_Tables_number   1
_chemical_formula_structural   Li6CoOF6
_chemical_formula_sum   'Li12 Co2 O2 F12'
_cell_volume   246.56770967
_cell_formula_units_Z   2
loop_
 _symmetry_equiv_pos_site_id
 _symmetry_equiv_pos_as_xyz
  1  'x, y, z'
loop_
 _atom_site_type_symbol
 _atom_site_label
 _atom_site_symmetry_multiplicity
 _atom_site_fract_x
 _atom_site_fract_y
 _atom_site_fract_z
 _atom_site_occupancy
  Li  Li0  1  0.00000000  0.00000000  0.92563000  1
  Li  Li1  1  0.50000000  0.50000000  0.57437000  1
  Li  Li2  1  0.00000000  0.00000000  0.64586900  1
  Li  Li3  1  0.50000000  0.50000000  0.85413100  1
  Li  Li4  1  0.50000000  0.50000000  0.71510750  1
  Li  Li5  1  0.00000000  0.00000000  0.78489250  1
  Li  Li6  1  0.50000000  0.50000000  0.42563000  1
  Li  Li7  1  0.00000000  0.00000000  0.07437000  1
  Li  Li8  1  0.50000000  0.50000000  0.14586900  1
  Li  Li9  1  0.00000000  0.00000000  0.35413100  1
  Li  Li10  1  0.00000000  0.00000000  0.21510750  1
  Li  Li11  1  0.50000000  0.50000000  0.28489250  1
  Co  Co12  1  0.00000000  0.00000000  0.50000000  1
  Co  Co13  1  0.50000000  0.50000000  0.00000000  1
  O  O14  1  0.50000000  0.50000000  0.50000000  1
  O  O15  1  0.00000000  0.00000000  0.00000000  1
  F  F16  1  0.50000000  0.50000000  0.92338500  1
  F  F17  1  0.00000000  0.00000000  0.57661500  1
  F  F18  1  0.50000000  0.50000000  0.64551625  1
  F  F19  1  0.00000000  0.00000000  0.85448375  1
  F  F20  1  0.00000000  0.00000000  0.71525875  1
  F  F21  1  0.50000000  0.50000000  0.78474125  1
  F  F22  1  0.00000000  0.00000000  0.42338500  1
  F  F23  1  0.50000000  0.50000000  0.07661500  1
  F  F24  1  0.00000000  0.00000000  0.14551625  1
  F  F25  1  0.50000000  0.50000000  0.35448375  1
  F  F26  1  0.50000000  0.50000000  0.21525875  1
  F  F27  1  0.00000000  0.00000000  0.28474125  1
