# generated using pymatgen
data_Bi16O25
_symmetry_space_group_name_H-M   'P 1'
_cell_length_a   11.13216800
_cell_length_b   11.13216800
_cell_length_c   11.23918800
_cell_angle_alpha   90.00000000
_cell_angle_beta   90.00000000
_cell_angle_gamma   90.00000000
_symmetry_Int_Tables_number   1
_chemical_formula_structural   Bi16O25
_chemical_formula_sum   'Bi32 O50'
_cell_volume   1392.81822040
_cell_formula_units_Z   2
loop_
 _symmetry_equiv_pos_site_id
 _symmetry_equiv_pos_as_xyz
  1  'x, y, z'
loop_
 _atom_site_type_symbol
 _atom_site_label
 _atom_site_symmetry_multiplicity
 _atom_site_fract_x
 _atom_site_fract_y
 _atom_site_fract_z
 _atom_site_occupancy
  Bi  Bi0  1  0.37416800  0.37416800  0.12077900  1
  Bi  Bi1  1  0.36946050  0.36946050  0.61364550  1
  Bi  Bi2  1  0.13012000  0.62997000  0.13307300  1
  Bi  Bi3  1  0.62997000  0.13012000  0.13307300  1
  Bi  Bi4  1  0.63053950  0.36946050  0.38635450  1
  Bi  Bi5  1  0.36946050  0.63053950  0.38635450  1
  Bi  Bi6  1  0.87416800  0.12583200  0.37922100  1
  Bi  Bi7  1  0.12583200  0.87416800  0.37922100  1
  Bi  Bi8  1  0.37003000  0.86988000  0.13307300  1
  Bi  Bi9  1  0.86988000  0.37003000  0.13307300  1
  Bi  Bi10  1  0.12583200  0.12583200  0.62077900  1
  Bi  Bi11  1  0.13053950  0.13053950  0.11364550  1
  Bi  Bi12  1  0.63012000  0.87003000  0.36692700  1
  Bi  Bi13  1  0.12997000  0.36988000  0.36692700  1
  Bi  Bi14  1  0.87003000  0.63012000  0.36692700  1
  Bi  Bi15  1  0.36988000  0.12997000  0.36692700  1
  Bi  Bi16  1  0.87416800  0.87416800  0.62077900  1
  Bi  Bi17  1  0.86946050  0.86946050  0.11364550  1
  Bi  Bi18  1  0.63012000  0.12997000  0.63307300  1
  Bi  Bi19  1  0.12997000  0.63012000  0.63307300  1
  Bi  Bi20  1  0.13053950  0.86946050  0.88635450  1
  Bi  Bi21  1  0.86946050  0.13053950  0.88635450  1
  Bi  Bi22  1  0.37416800  0.62583200  0.87922100  1
  Bi  Bi23  1  0.62583200  0.37416800  0.87922100  1
  Bi  Bi24  1  0.87003000  0.36988000  0.63307300  1
  Bi  Bi25  1  0.36988000  0.87003000  0.63307300  1
  Bi  Bi26  1  0.62583200  0.62583200  0.12077900  1
  Bi  Bi27  1  0.63053950  0.63053950  0.61364550  1
  Bi  Bi28  1  0.13012000  0.37003000  0.86692700  1
  Bi  Bi29  1  0.62997000  0.86988000  0.86692700  1
  Bi  Bi30  1  0.37003000  0.13012000  0.86692700  1
  Bi  Bi31  1  0.86988000  0.62997000  0.86692700  1
  O  O32  1  0.50000000  0.20204200  0.00000000  1
  O  O33  1  0.20204200  0.50000000  0.00000000  1
  O  O34  1  0.00000000  0.70799700  0.00000000  1
  O  O35  1  0.70799700  0.00000000  0.00000000  1
  O  O36  1  0.29678500  0.50279800  0.25096900  1
  O  O37  1  0.49720200  0.29678500  0.74903100  1
  O  O38  1  0.50279800  0.29678500  0.25096900  1
  O  O39  1  0.29678500  0.49720200  0.74903100  1
  O  O40  1  0.75558200  0.24441800  0.28936200  1
  O  O41  1  0.24441800  0.75558200  0.28936200  1
  O  O42  1  0.24741550  0.75258450  0.54364550  1
  O  O43  1  0.75258450  0.24741550  0.54364550  1
  O  O44  1  0.00000000  0.00000000  0.00000000  1
  O  O45  1  0.00279800  0.20321500  0.24903100  1
  O  O46  1  0.99720200  0.20321500  0.75096900  1
  O  O47  1  0.20321500  0.00279800  0.24903100  1
  O  O48  1  0.20321500  0.99720200  0.75096900  1
  O  O49  1  0.29795800  0.00000000  0.50000000  1
  O  O50  1  0.00000000  0.29200300  0.00000000  1
  O  O51  1  0.29200300  0.00000000  0.00000000  1
  O  O52  1  0.00000000  0.29795800  0.50000000  1
  O  O53  1  0.25258450  0.25258450  0.95635450  1
  O  O54  1  0.24741550  0.24741550  0.45635450  1
  O  O55  1  0.25558200  0.25558200  0.21063800  1
  O  O56  1  0.24441800  0.24441800  0.71063800  1
  O  O57  1  0.00000000  0.70204200  0.50000000  1
  O  O58  1  0.70204200  0.00000000  0.50000000  1
  O  O59  1  0.50000000  0.20799700  0.50000000  1
  O  O60  1  0.20799700  0.50000000  0.50000000  1
  O  O61  1  0.79678500  0.00279800  0.75096900  1
  O  O62  1  0.99720200  0.79678500  0.24903100  1
  O  O63  1  0.00279800  0.79678500  0.75096900  1
  O  O64  1  0.79678500  0.99720200  0.24903100  1
  O  O65  1  0.25558200  0.74441800  0.78936200  1
  O  O66  1  0.74441800  0.25558200  0.78936200  1
  O  O67  1  0.74741550  0.25258450  0.04364550  1
  O  O68  1  0.25258450  0.74741550  0.04364550  1
  O  O69  1  0.50000000  0.50000000  0.50000000  1
  O  O70  1  0.50279800  0.70321500  0.74903100  1
  O  O71  1  0.49720200  0.70321500  0.25096900  1
  O  O72  1  0.70321500  0.50279800  0.74903100  1
  O  O73  1  0.70321500  0.49720200  0.25096900  1
  O  O74  1  0.79795800  0.50000000  0.00000000  1
  O  O75  1  0.50000000  0.79200300  0.50000000  1
  O  O76  1  0.79200300  0.50000000  0.50000000  1
  O  O77  1  0.50000000  0.79795800  0.00000000  1
  O  O78  1  0.75258450  0.75258450  0.45635450  1
  O  O79  1  0.74741550  0.74741550  0.95635450  1
  O  O80  1  0.75558200  0.75558200  0.71063800  1
  O  O81  1  0.74441800  0.74441800  0.21063800  1
