# generated using pymatgen
data_Na3Ni2P2(CO7)2
_symmetry_space_group_name_H-M   'P 1'
_cell_length_a   8.30692987
_cell_length_b   8.32664535
_cell_length_c   10.22053296
_cell_angle_alpha   108.15659247
_cell_angle_beta   106.80835780
_cell_angle_gamma   103.05712648
_symmetry_Int_Tables_number   1
_chemical_formula_structural   Na3Ni2P2(CO7)2
_chemical_formula_sum   'Na6 Ni4 P4 C4 O28'
_cell_volume   602.98479357
_cell_formula_units_Z   2
loop_
 _symmetry_equiv_pos_site_id
 _symmetry_equiv_pos_as_xyz
  1  'x, y, z'
loop_
 _atom_site_type_symbol
 _atom_site_label
 _atom_site_symmetry_multiplicity
 _atom_site_fract_x
 _atom_site_fract_y
 _atom_site_fract_z
 _atom_site_occupancy
  Na  Na0  1  0.00537400  0.49157900  0.24910000  1
  Na  Na1  1  0.24608500  0.24410900  0.24714300  1
  Na  Na2  1  0.27503800  0.23146100  0.74397400  1
  Na  Na3  1  0.72496200  0.76853900  0.25602600  1
  Na  Na4  1  0.75391500  0.75589100  0.75285700  1
  Na  Na5  1  0.99462600  0.50842100  0.75090000  1
  Ni  Ni6  1  0.19344700  0.93855300  0.34802100  1
  Ni  Ni7  1  0.30951800  0.56330700  0.65346500  1
  Ni  Ni8  1  0.69048200  0.43669300  0.34653500  1
  Ni  Ni9  1  0.80655300  0.06144700  0.65197900  1
  P  P10  1  0.04868200  0.80161700  0.57224700  1
  P  P11  1  0.55621500  0.30497000  0.57467200  1
  P  P12  1  0.44378500  0.69503000  0.42532800  1
  P  P13  1  0.95131800  0.19838300  0.42775300  1
  C  C14  1  0.01724200  0.77249300  0.07580600  1
  C  C15  1  0.47623800  0.73279700  0.92306700  1
  C  C16  1  0.52376200  0.26720300  0.07693300  1
  C  C17  1  0.98275800  0.22750700  0.92419400  1
  O  O18  1  0.07163800  0.31287700  0.06197900  1
  O  O19  1  0.03079300  0.09152700  0.32607800  1
  O  O20  1  0.40897200  0.15677900  0.42931400  1
  O  O21  1  0.31838900  0.56011100  0.46249000  1
  O  O22  1  0.17614700  0.93321000  0.53598400  1
  O  O23  1  0.09880700  0.34019000  0.57907100  1
  O  O24  1  0.14719500  0.71260400  0.66446500  1
  O  O25  1  0.47805200  0.41431100  0.67720600  1
  O  O26  1  0.67518300  0.23764700  0.67563700  1
  O  O27  1  0.02751100  0.27135700  0.82446300  1
  O  O28  1  0.51830000  0.77831500  0.82373600  1
  O  O29  1  0.33244800  0.59105500  0.86588900  1
  O  O30  1  0.83849000  0.08909600  0.86694800  1
  O  O31  1  0.43352900  0.18430600  0.94059200  1
  O  O32  1  0.56647100  0.81569400  0.05940800  1
  O  O33  1  0.16151000  0.91090400  0.13305200  1
  O  O34  1  0.66755200  0.40894500  0.13411100  1
  O  O35  1  0.48170000  0.22168500  0.17626400  1
  O  O36  1  0.97248900  0.72864300  0.17553700  1
  O  O37  1  0.32481700  0.76235300  0.32436300  1
  O  O38  1  0.52194800  0.58568900  0.32279400  1
  O  O39  1  0.85280500  0.28739600  0.33553500  1
  O  O40  1  0.90119300  0.65981000  0.42092900  1
  O  O41  1  0.82385300  0.06679000  0.46401600  1
  O  O42  1  0.68161100  0.43988900  0.53751000  1
  O  O43  1  0.59102800  0.84322100  0.57068600  1
  O  O44  1  0.96920700  0.90847300  0.67392200  1
  O  O45  1  0.92836200  0.68712300  0.93802100  1
