# generated using pymatgen
data_LiVP2O7
_symmetry_space_group_name_H-M   'P 1'
_cell_length_a   6.21370414
_cell_length_b   6.47166001
_cell_length_c   7.98666409
_cell_angle_alpha   97.30857311
_cell_angle_beta   105.04714692
_cell_angle_gamma   112.86608870
_symmetry_Int_Tables_number   1
_chemical_formula_structural   LiVP2O7
_chemical_formula_sum   'Li2 V2 P4 O14'
_cell_volume   276.23352575
_cell_formula_units_Z   2
loop_
 _symmetry_equiv_pos_site_id
 _symmetry_equiv_pos_as_xyz
  1  'x, y, z'
loop_
 _atom_site_type_symbol
 _atom_site_label
 _atom_site_symmetry_multiplicity
 _atom_site_fract_x
 _atom_site_fract_y
 _atom_site_fract_z
 _atom_site_occupancy
  Li  Li0  1  0.00000000  0.00000000  0.00000000  1
  Li  Li1  1  0.00000000  0.00000000  0.50000000  1
  V  V2  1  0.61083200  0.31044200  0.76880200  1
  V  V3  1  0.38916800  0.68955800  0.23119800  1
  P  P4  1  0.17445800  0.44914900  0.78027600  1
  P  P5  1  0.56695900  0.77740300  0.68689200  1
  P  P6  1  0.43304100  0.22259700  0.31310800  1
  P  P7  1  0.82554200  0.55085100  0.21972400  1
  O  O8  1  0.26419300  0.60750200  0.96503700  1
  O  O9  1  0.25757500  0.25155900  0.76920500  1
  O  O10  1  0.61883600  0.00604800  0.80795400  1
  O  O11  1  0.72803400  0.67478900  0.79322400  1
  O  O12  1  0.28073800  0.60126100  0.64918300  1
  O  O13  1  0.89570900  0.34267200  0.68909700  1
  O  O14  1  0.40002800  0.20103600  0.49453900  1
  O  O15  1  0.59997200  0.79896400  0.50546100  1
  O  O16  1  0.10429100  0.65732800  0.31090300  1
  O  O17  1  0.71926200  0.39873900  0.35081700  1
  O  O18  1  0.27196600  0.32521100  0.20677600  1
  O  O19  1  0.38116400  0.99395200  0.19204600  1
  O  O20  1  0.74242500  0.74844100  0.23079500  1
  O  O21  1  0.73580700  0.39249800  0.03496300  1
