# generated using pymatgen
data_Li4Cu7(PO4)6
_symmetry_space_group_name_H-M   'P 1'
_cell_length_a   11.07731000
_cell_length_b   13.94961800
_cell_length_c   6.25427756
_cell_angle_alpha   90.00000000
_cell_angle_beta   104.68811776
_cell_angle_gamma   90.00000000
_symmetry_Int_Tables_number   1
_chemical_formula_structural   Li4Cu7(PO4)6
_chemical_formula_sum   'Li8 Cu14 P12 O48'
_cell_volume   934.85467229
_cell_formula_units_Z   2
loop_
 _symmetry_equiv_pos_site_id
 _symmetry_equiv_pos_as_xyz
  1  'x, y, z'
loop_
 _atom_site_type_symbol
 _atom_site_label
 _atom_site_symmetry_multiplicity
 _atom_site_fract_x
 _atom_site_fract_y
 _atom_site_fract_z
 _atom_site_occupancy
  Li  Li0  1  0.27008400  0.00000000  0.52752300  1
  Li  Li1  1  0.58586850  0.87307850  0.53119900  1
  Li  Li2  1  0.58586850  0.12692150  0.53119900  1
  Li  Li3  1  0.94401800  0.00000000  0.51308000  1
  Li  Li4  1  0.77008400  0.50000000  0.52752300  1
  Li  Li5  1  0.08586850  0.37307850  0.53119900  1
  Li  Li6  1  0.08586850  0.62692150  0.53119900  1
  Li  Li7  1  0.44401800  0.50000000  0.51308000  1
  Cu  Cu8  1  0.32730450  0.68741950  0.18148700  1
  Cu  Cu9  1  0.32730450  0.31258050  0.18148700  1
  Cu  Cu10  1  0.49917050  0.87488150  0.99792500  1
  Cu  Cu11  1  0.49917050  0.12511850  0.99792500  1
  Cu  Cu12  1  0.99262500  0.00000000  0.00069800  1
  Cu  Cu13  1  0.67135200  0.67826700  0.81659400  1
  Cu  Cu14  1  0.67135200  0.32173300  0.81659400  1
  Cu  Cu15  1  0.82730450  0.18741950  0.18148700  1
  Cu  Cu16  1  0.82730450  0.81258050  0.18148700  1
  Cu  Cu17  1  0.99917050  0.37488150  0.99792500  1
  Cu  Cu18  1  0.99917050  0.62511850  0.99792500  1
  Cu  Cu19  1  0.49262500  0.50000000  0.00069800  1
  Cu  Cu20  1  0.17135200  0.17826700  0.81659400  1
  Cu  Cu21  1  0.17135200  0.82173300  0.81659400  1
  P  P22  1  0.40522100  0.30958300  0.71176600  1
  P  P23  1  0.40522100  0.69041700  0.71176600  1
  P  P24  1  0.32837200  0.00000000  0.07167800  1
  P  P25  1  0.67913200  0.00000000  0.92320600  1
  P  P26  1  0.59975400  0.68506100  0.29172700  1
  P  P27  1  0.59975400  0.31493900  0.29172700  1
  P  P28  1  0.90522100  0.80958300  0.71176600  1
  P  P29  1  0.90522100  0.19041700  0.71176600  1
  P  P30  1  0.82837200  0.50000000  0.07167800  1
  P  P31  1  0.17913200  0.50000000  0.92320600  1
  P  P32  1  0.09975400  0.18506100  0.29172700  1
  P  P33  1  0.09975400  0.81493900  0.29172700  1
  O  O34  1  0.32174700  0.08875600  0.91163200  1
  O  O35  1  0.32174700  0.91124400  0.91163200  1
  O  O36  1  0.23088500  0.00000000  0.19940800  1
  O  O37  1  0.31795050  0.70662050  0.86665100  1
  O  O38  1  0.31795050  0.29337950  0.86665100  1
  O  O39  1  0.49738600  0.39881100  0.77202100  1
  O  O40  1  0.49738600  0.60118900  0.77202100  1
  O  O41  1  0.49612700  0.77816700  0.73319700  1
  O  O42  1  0.49612700  0.22183300  0.73319700  1
  O  O43  1  0.46591500  0.00000000  0.21574600  1
  O  O44  1  0.56025700  0.00000000  0.72724700  1
  O  O45  1  0.49482600  0.39506500  0.21725400  1
  O  O46  1  0.49482600  0.60493500  0.21725400  1
  O  O47  1  0.52554550  0.77883650  0.29502100  1
  O  O48  1  0.52554550  0.22116350  0.29502100  1
  O  O49  1  0.18290800  0.15220200  0.51703200  1
  O  O50  1  0.18290800  0.84779800  0.51703200  1
  O  O51  1  0.79473400  0.00000000  0.83685700  1
  O  O52  1  0.68583500  0.69931600  0.13258500  1
  O  O53  1  0.68583500  0.30068400  0.13258500  1
  O  O54  1  0.67388350  0.90924150  0.07087300  1
  O  O55  1  0.67388350  0.09075850  0.07087300  1
  O  O56  1  0.81961300  0.16759800  0.48247700  1
  O  O57  1  0.81961300  0.83240200  0.48247700  1
  O  O58  1  0.82174700  0.58875600  0.91163200  1
  O  O59  1  0.82174700  0.41124400  0.91163200  1
  O  O60  1  0.73088500  0.50000000  0.19940800  1
  O  O61  1  0.81795050  0.20662050  0.86665100  1
  O  O62  1  0.81795050  0.79337950  0.86665100  1
  O  O63  1  0.99738600  0.89881100  0.77202100  1
  O  O64  1  0.99738600  0.10118900  0.77202100  1
  O  O65  1  0.99612700  0.27816700  0.73319700  1
  O  O66  1  0.99612700  0.72183300  0.73319700  1
  O  O67  1  0.96591500  0.50000000  0.21574600  1
  O  O68  1  0.06025700  0.50000000  0.72724700  1
  O  O69  1  0.99482600  0.89506500  0.21725400  1
  O  O70  1  0.99482600  0.10493500  0.21725400  1
  O  O71  1  0.02554550  0.27883650  0.29502100  1
  O  O72  1  0.02554550  0.72116350  0.29502100  1
  O  O73  1  0.68290800  0.65220200  0.51703200  1
  O  O74  1  0.68290800  0.34779800  0.51703200  1
  O  O75  1  0.29473400  0.50000000  0.83685700  1
  O  O76  1  0.18583500  0.19931600  0.13258500  1
  O  O77  1  0.18583500  0.80068400  0.13258500  1
  O  O78  1  0.17388350  0.40924150  0.07087300  1
  O  O79  1  0.17388350  0.59075850  0.07087300  1
  O  O80  1  0.31961300  0.66759800  0.48247700  1
  O  O81  1  0.31961300  0.33240200  0.48247700  1
