# generated using pymatgen
data_LiMnPO4
_symmetry_space_group_name_H-M   'P 1'
_cell_length_a   4.82458804
_cell_length_b   7.71038900
_cell_length_c   8.66790107
_cell_angle_alpha   90.00000000
_cell_angle_beta   90.00000000
_cell_angle_gamma   90.00000000
_symmetry_Int_Tables_number   1
_chemical_formula_structural   LiMnPO4
_chemical_formula_sum   'Li4 Mn4 P4 O16'
_cell_volume   322.44115681
_cell_formula_units_Z   4
loop_
 _symmetry_equiv_pos_site_id
 _symmetry_equiv_pos_as_xyz
  1  'x, y, z'
loop_
 _atom_site_type_symbol
 _atom_site_label
 _atom_site_symmetry_multiplicity
 _atom_site_fract_x
 _atom_site_fract_y
 _atom_site_fract_z
 _atom_site_occupancy
  Li  Li0  1  0.03720900  0.64115900  0.52353500  1
  Li  Li1  1  0.53720900  0.85884100  0.02353500  1
  Li  Li2  1  0.03720900  0.14115900  0.97646500  1
  Li  Li3  1  0.53720900  0.35884100  0.47646500  1
  Mn  Mn4  1  0.97724300  0.02944100  0.32207500  1
  Mn  Mn5  1  0.47724300  0.47055900  0.82207500  1
  Mn  Mn6  1  0.97724300  0.52944100  0.17792500  1
  Mn  Mn7  1  0.47724300  0.97055900  0.67792500  1
  P  P8  1  0.55025600  0.74538200  0.35935500  1
  P  P9  1  0.05025600  0.75461800  0.85935500  1
  P  P10  1  0.55025600  0.24538200  0.14064500  1
  P  P11  1  0.05025600  0.25461800  0.64064500  1
  O  O12  1  0.66210300  0.58779000  0.44726300  1
  O  O13  1  0.16210300  0.91221000  0.94726300  1
  O  O14  1  0.66210300  0.08779000  0.05273700  1
  O  O15  1  0.16210300  0.41221000  0.55273700  1
  O  O16  1  0.13119500  0.58700300  0.95138300  1
  O  O17  1  0.63119500  0.91299700  0.45138300  1
  O  O18  1  0.13119500  0.08700300  0.54861700  1
  O  O19  1  0.63119500  0.41299700  0.04861700  1
  O  O20  1  0.22889800  0.74004200  0.33313900  1
  O  O21  1  0.72889800  0.75995800  0.83313900  1
  O  O22  1  0.22889800  0.24004200  0.16686100  1
  O  O23  1  0.72889800  0.25995800  0.66686100  1
  O  O24  1  0.70482300  0.75621800  0.20179900  1
  O  O25  1  0.20482300  0.74378200  0.70179900  1
  O  O26  1  0.70482300  0.25621800  0.29820100  1
  O  O27  1  0.20482300  0.24378200  0.79820100  1
