# generated using pymatgen
data_LiMnO2
_symmetry_space_group_name_H-M   'P 1'
_cell_length_a   10.34330000
_cell_length_b   5.92265800
_cell_length_c   5.91679459
_cell_angle_alpha   90.00000000
_cell_angle_beta   124.82407303
_cell_angle_gamma   90.00000000
_symmetry_Int_Tables_number   1
_chemical_formula_structural   LiMnO2
_chemical_formula_sum   'Li8 Mn8 O16'
_cell_volume   297.54829848
_cell_formula_units_Z   8
loop_
 _symmetry_equiv_pos_site_id
 _symmetry_equiv_pos_as_xyz
  1  'x, y, z'
loop_
 _atom_site_type_symbol
 _atom_site_label
 _atom_site_symmetry_multiplicity
 _atom_site_fract_x
 _atom_site_fract_y
 _atom_site_fract_z
 _atom_site_occupancy
  Li  Li0  1  0.00000000  0.50000000  0.00000000  1
  Li  Li1  1  0.25000000  0.75000000  0.00000000  1
  Li  Li2  1  0.25000000  0.25000000  0.00000000  1
  Li  Li3  1  0.00000000  0.00000000  0.50000000  1
  Li  Li4  1  0.50000000  0.00000000  0.00000000  1
  Li  Li5  1  0.75000000  0.25000000  0.00000000  1
  Li  Li6  1  0.75000000  0.75000000  0.00000000  1
  Li  Li7  1  0.50000000  0.50000000  0.50000000  1
  Mn  Mn8  1  0.00000000  0.00000000  0.00000000  1
  Mn  Mn9  1  0.25000000  0.25000000  0.50000000  1
  Mn  Mn10  1  0.25000000  0.75000000  0.50000000  1
  Mn  Mn11  1  0.00000000  0.50000000  0.50000000  1
  Mn  Mn12  1  0.50000000  0.50000000  0.00000000  1
  Mn  Mn13  1  0.75000000  0.75000000  0.50000000  1
  Mn  Mn14  1  0.75000000  0.25000000  0.50000000  1
  Mn  Mn15  1  0.50000000  0.00000000  0.50000000  1
  O  O16  1  0.24993500  0.00000000  0.71495700  1
  O  O17  1  0.01419600  0.75531000  0.25896000  1
  O  O18  1  0.01419600  0.24469000  0.25896000  1
  O  O19  1  0.25006500  0.50000000  0.28504300  1
  O  O20  1  0.24110900  0.50000000  0.75371000  1
  O  O21  1  0.48580400  0.74469000  0.74104000  1
  O  O22  1  0.48580400  0.25531000  0.74104000  1
  O  O23  1  0.25889100  0.00000000  0.24629000  1
  O  O24  1  0.74993500  0.50000000  0.71495700  1
  O  O25  1  0.51419600  0.25531000  0.25896000  1
  O  O26  1  0.51419600  0.74469000  0.25896000  1
  O  O27  1  0.75006500  0.00000000  0.28504300  1
  O  O28  1  0.74110900  0.00000000  0.75371000  1
  O  O29  1  0.98580400  0.24469000  0.74104000  1
  O  O30  1  0.98580400  0.75531000  0.74104000  1
  O  O31  1  0.75889100  0.50000000  0.24629000  1
