# generated using pymatgen
data_Li4Nb3Cu3(TeO8)2
_symmetry_space_group_name_H-M   'P 1'
_cell_length_a   10.89012200
_cell_length_b   6.09617600
_cell_length_c   10.58476399
_cell_angle_alpha   90.00000000
_cell_angle_beta   90.76074431
_cell_angle_gamma   90.00000000
_symmetry_Int_Tables_number   1
_chemical_formula_structural   Li4Nb3Cu3(TeO8)2
_chemical_formula_sum   'Li8 Nb6 Cu6 Te4 O32'
_cell_volume   702.64043476
_cell_formula_units_Z   2
loop_
 _symmetry_equiv_pos_site_id
 _symmetry_equiv_pos_as_xyz
  1  'x, y, z'
loop_
 _atom_site_type_symbol
 _atom_site_label
 _atom_site_symmetry_multiplicity
 _atom_site_fract_x
 _atom_site_fract_y
 _atom_site_fract_z
 _atom_site_occupancy
  Li  Li0  1  0.66591400  0.00000000  0.09509500  1
  Li  Li1  1  0.50062800  0.50000000  0.99947500  1
  Li  Li2  1  0.50766700  0.50000000  0.52200700  1
  Li  Li3  1  0.84205500  0.50000000  0.59912300  1
  Li  Li4  1  0.16591400  0.50000000  0.09509500  1
  Li  Li5  1  0.00062800  0.00000000  0.99947500  1
  Li  Li6  1  0.00766700  0.00000000  0.52200700  1
  Li  Li7  1  0.34205500  0.00000000  0.59912300  1
  Nb  Nb8  1  0.81937700  0.00000000  0.76384800  1
  Nb  Nb9  1  0.90781200  0.25071000  0.28114400  1
  Nb  Nb10  1  0.90781200  0.74929000  0.28114400  1
  Nb  Nb11  1  0.31937700  0.50000000  0.76384800  1
  Nb  Nb12  1  0.40781200  0.75071000  0.28114400  1
  Nb  Nb13  1  0.40781200  0.24929000  0.28114400  1
  Cu  Cu14  1  0.58280200  0.75483300  0.78849800  1
  Cu  Cu15  1  0.58280200  0.24516700  0.78849800  1
  Cu  Cu16  1  0.66708600  0.50000000  0.27966900  1
  Cu  Cu17  1  0.08280200  0.25483300  0.78849800  1
  Cu  Cu18  1  0.08280200  0.74516700  0.78849800  1
  Cu  Cu19  1  0.16708600  0.00000000  0.27966900  1
  Te  Te20  1  0.63868200  0.00000000  0.50756900  1
  Te  Te21  1  0.82551700  0.50000000  0.98310700  1
  Te  Te22  1  0.13868200  0.50000000  0.50756900  1
  Te  Te23  1  0.32551700  0.00000000  0.98310700  1
  O  O24  1  0.56405650  0.75207550  0.41500800  1
  O  O25  1  0.52224300  0.00000000  0.64434400  1
  O  O26  1  0.66947000  0.00000000  0.88030200  1
  O  O27  1  0.99878000  0.00000000  0.71003400  1
  O  O28  1  0.50107100  0.50000000  0.18877700  1
  O  O29  1  0.56405650  0.24792450  0.41500800  1
  O  O30  1  0.76561950  0.77101050  0.65905300  1
  O  O31  1  0.76561950  0.22898950  0.65905300  1
  O  O32  1  0.66361400  0.50000000  0.90491800  1
  O  O33  1  0.86033500  0.00000000  0.39202500  1
  O  O34  1  0.76774350  0.24063750  0.17754500  1
  O  O35  1  0.76774350  0.75936250  0.17754500  1
  O  O36  1  0.84370500  0.50000000  0.38999900  1
  O  O37  1  0.90348100  0.24804700  0.90214800  1
  O  O38  1  0.99115300  0.50000000  0.18504300  1
  O  O39  1  0.90348100  0.75195300  0.90214800  1
  O  O40  1  0.06405650  0.25207550  0.41500800  1
  O  O41  1  0.02224300  0.50000000  0.64434400  1
  O  O42  1  0.16947000  0.50000000  0.88030200  1
  O  O43  1  0.49878000  0.50000000  0.71003400  1
  O  O44  1  0.00107100  0.00000000  0.18877700  1
  O  O45  1  0.06405650  0.74792450  0.41500800  1
  O  O46  1  0.26561950  0.27101050  0.65905300  1
  O  O47  1  0.26561950  0.72898950  0.65905300  1
  O  O48  1  0.16361400  0.00000000  0.90491800  1
  O  O49  1  0.36033500  0.50000000  0.39202500  1
  O  O50  1  0.26774350  0.74063750  0.17754500  1
  O  O51  1  0.26774350  0.25936250  0.17754500  1
  O  O52  1  0.34370500  0.00000000  0.38999900  1
  O  O53  1  0.40348100  0.74804700  0.90214800  1
  O  O54  1  0.49115300  0.00000000  0.18504300  1
  O  O55  1  0.40348100  0.25195300  0.90214800  1
