# generated using pymatgen
data_Li3Mn(CO3)3
_symmetry_space_group_name_H-M   'P 1'
_cell_length_a   7.26253400
_cell_length_b   9.49465200
_cell_length_c   10.14902400
_cell_angle_alpha   90.00000000
_cell_angle_beta   90.00000000
_cell_angle_gamma   90.00000000
_symmetry_Int_Tables_number   1
_chemical_formula_structural   Li3Mn(CO3)3
_chemical_formula_sum   'Li12 Mn4 C12 O36'
_cell_volume   699.82831432
_cell_formula_units_Z   4
loop_
 _symmetry_equiv_pos_site_id
 _symmetry_equiv_pos_as_xyz
  1  'x, y, z'
loop_
 _atom_site_type_symbol
 _atom_site_label
 _atom_site_symmetry_multiplicity
 _atom_site_fract_x
 _atom_site_fract_y
 _atom_site_fract_z
 _atom_site_occupancy
  Li  Li0  1  0.09060000  0.00000000  0.00000000  1
  Li  Li1  1  0.37342900  0.98132400  0.25000000  1
  Li  Li2  1  0.47370400  0.72021000  0.25000000  1
  Li  Li3  1  0.09060000  0.00000000  0.50000000  1
  Li  Li4  1  0.47370400  0.27979000  0.75000000  1
  Li  Li5  1  0.37342900  0.01867600  0.75000000  1
  Li  Li6  1  0.59060000  0.50000000  0.00000000  1
  Li  Li7  1  0.87342900  0.48132400  0.25000000  1
  Li  Li8  1  0.97370400  0.22021000  0.25000000  1
  Li  Li9  1  0.59060000  0.50000000  0.50000000  1
  Li  Li10  1  0.97370400  0.77979000  0.75000000  1
  Li  Li11  1  0.87342900  0.51867600  0.75000000  1
  Mn  Mn12  1  0.43793400  0.28884300  0.25000000  1
  Mn  Mn13  1  0.43793400  0.71115700  0.75000000  1
  Mn  Mn14  1  0.93793400  0.78884300  0.25000000  1
  Mn  Mn15  1  0.93793400  0.21115700  0.75000000  1
  C  C16  1  0.35363550  0.19649550  0.01617500  1
  C  C17  1  0.73377550  0.00840150  0.25000000  1
  C  C18  1  0.35363550  0.19649550  0.48382500  1
  C  C19  1  0.35363550  0.80350450  0.51617500  1
  C  C20  1  0.73377550  0.99159850  0.75000000  1
  C  C21  1  0.35363550  0.80350450  0.98382500  1
  C  C22  1  0.85363550  0.69649550  0.01617500  1
  C  C23  1  0.23377550  0.50840150  0.25000000  1
  C  C24  1  0.85363550  0.69649550  0.48382500  1
  C  C25  1  0.85363550  0.30350450  0.51617500  1
  C  C26  1  0.23377550  0.49159850  0.75000000  1
  C  C27  1  0.85363550  0.30350450  0.98382500  1
  O  O28  1  0.44911900  0.30724000  0.05850200  1
  O  O29  1  0.27632500  0.12259800  0.10776000  1
  O  O30  1  0.34318000  0.82791500  0.10584600  1
  O  O31  1  0.63789500  0.12068000  0.25000000  1
  O  O32  1  0.91703750  0.01284750  0.25000000  1
  O  O33  1  0.66226650  0.88420850  0.25000000  1
  O  O34  1  0.34318000  0.82791500  0.39415400  1
  O  O35  1  0.27632500  0.12259800  0.39224000  1
  O  O36  1  0.44911900  0.30724000  0.44149800  1
  O  O37  1  0.44911900  0.69276000  0.55850200  1
  O  O38  1  0.27632500  0.87740200  0.60776000  1
  O  O39  1  0.34318000  0.17208500  0.60584600  1
  O  O40  1  0.66226650  0.11579150  0.75000000  1
  O  O41  1  0.63789500  0.87932000  0.75000000  1
  O  O42  1  0.91703750  0.98715250  0.75000000  1
  O  O43  1  0.34318000  0.17208500  0.89415400  1
  O  O44  1  0.27632500  0.87740200  0.89224000  1
  O  O45  1  0.44911900  0.69276000  0.94149800  1
  O  O46  1  0.94911900  0.80724000  0.05850200  1
  O  O47  1  0.77632500  0.62259800  0.10776000  1
  O  O48  1  0.84318000  0.32791500  0.10584600  1
  O  O49  1  0.13789500  0.62068000  0.25000000  1
  O  O50  1  0.41703750  0.51284750  0.25000000  1
  O  O51  1  0.16226650  0.38420850  0.25000000  1
  O  O52  1  0.84318000  0.32791500  0.39415400  1
  O  O53  1  0.77632500  0.62259800  0.39224000  1
  O  O54  1  0.94911900  0.80724000  0.44149800  1
  O  O55  1  0.94911900  0.19276000  0.55850200  1
  O  O56  1  0.77632500  0.37740200  0.60776000  1
  O  O57  1  0.84318000  0.67208500  0.60584600  1
  O  O58  1  0.16226650  0.61579150  0.75000000  1
  O  O59  1  0.13789500  0.37932000  0.75000000  1
  O  O60  1  0.41703750  0.48715250  0.75000000  1
  O  O61  1  0.84318000  0.67208500  0.89415400  1
  O  O62  1  0.77632500  0.37740200  0.89224000  1
  O  O63  1  0.94911900  0.19276000  0.94149800  1
