# generated using pymatgen
data_Cu3Sb(PO4)4
_symmetry_space_group_name_H-M   'P 1'
_cell_length_a   4.88927551
_cell_length_b   5.97833900
_cell_length_c   9.85941525
_cell_angle_alpha   90.00000000
_cell_angle_beta   91.21465190
_cell_angle_gamma   90.00000000
_symmetry_Int_Tables_number   1
_chemical_formula_structural   Cu3Sb(PO4)4
_chemical_formula_sum   'Cu3 Sb1 P4 O16'
_cell_volume   288.12345096
_cell_formula_units_Z   1
loop_
 _symmetry_equiv_pos_site_id
 _symmetry_equiv_pos_as_xyz
  1  'x, y, z'
loop_
 _atom_site_type_symbol
 _atom_site_label
 _atom_site_symmetry_multiplicity
 _atom_site_fract_x
 _atom_site_fract_y
 _atom_site_fract_z
 _atom_site_occupancy
  Cu  Cu0  1  0.95850000  0.50000000  0.72728300  1
  Cu  Cu1  1  0.58041600  0.50000000  0.21283200  1
  Cu  Cu2  1  0.43376000  0.00000000  0.77441700  1
  Sb  Sb3  1  0.03580000  0.00000000  0.28229100  1
  P  P4  1  0.91040300  0.00000000  0.60435000  1
  P  P5  1  0.59104500  0.00000000  0.09064500  1
  P  P6  1  0.41833300  0.50000000  0.90234000  1
  P  P7  1  0.07738400  0.50000000  0.40954000  1
  O  O8  1  0.81555000  0.00000000  0.44569000  1
  O  O9  1  0.77121700  0.20478300  0.66883000  1
  O  O10  1  0.77121700  0.79521700  0.66883000  1
  O  O11  1  0.77054100  0.50000000  0.38449000  1
  O  O12  1  0.72926300  0.50000000  0.88876600  1
  O  O13  1  0.74809000  0.19489300  0.17149200  1
  O  O14  1  0.74809000  0.80510700  0.17149200  1
  O  O15  1  0.64678800  0.00000000  0.94181500  1
  O  O16  1  0.35200400  0.50000000  0.05553800  1
  O  O17  1  0.26444500  0.69977800  0.82864400  1
  O  O18  1  0.26444500  0.30022200  0.82864400  1
  O  O19  1  0.27957700  0.00000000  0.11929800  1
  O  O20  1  0.22382200  0.00000000  0.60447300  1
  O  O21  1  0.21981300  0.70734600  0.33123500  1
  O  O22  1  0.21981300  0.29265400  0.33123500  1
  O  O23  1  0.16968300  0.50000000  0.55582700  1
