# generated using pymatgen
data_VF5
_symmetry_space_group_name_H-M   'P 1'
_cell_length_a   7.85944200
_cell_length_b   9.00453400
_cell_length_c   11.22428100
_cell_angle_alpha   90.00000000
_cell_angle_beta   90.00000000
_cell_angle_gamma   90.00000000
_symmetry_Int_Tables_number   1
_chemical_formula_structural   VF5
_chemical_formula_sum   'V8 F40'
_cell_volume   794.34924360
_cell_formula_units_Z   8
loop_
 _symmetry_equiv_pos_site_id
 _symmetry_equiv_pos_as_xyz
  1  'x, y, z'
loop_
 _atom_site_type_symbol
 _atom_site_label
 _atom_site_symmetry_multiplicity
 _atom_site_fract_x
 _atom_site_fract_y
 _atom_site_fract_z
 _atom_site_occupancy
  V  V0  1  0.15852400  0.00000000  0.40809700  1
  V  V1  1  0.34147600  0.00000000  0.90809700  1
  V  V2  1  0.65852400  0.00000000  0.09190300  1
  V  V3  1  0.84147600  0.00000000  0.59190300  1
  V  V4  1  0.65852400  0.50000000  0.40809700  1
  V  V5  1  0.84147600  0.50000000  0.90809700  1
  V  V6  1  0.15852400  0.50000000  0.09190300  1
  V  V7  1  0.34147600  0.50000000  0.59190300  1
  F  F8  1  0.50000000  0.36805100  0.50000000  1
  F  F9  1  0.99918800  0.00000000  0.29632100  1
  F  F10  1  0.26142800  0.15361500  0.34814900  1
  F  F11  1  0.23857200  0.15361500  0.84814900  1
  F  F12  1  0.21377600  0.00000000  0.03848200  1
  F  F13  1  0.50000000  0.13194900  0.00000000  1
  F  F14  1  0.28622400  0.00000000  0.53848200  1
  F  F15  1  0.26142800  0.84638500  0.34814900  1
  F  F16  1  0.23857200  0.84638500  0.84814900  1
  F  F17  1  0.50081200  0.00000000  0.79632100  1
  F  F18  1  0.49918800  0.00000000  0.20367900  1
  F  F19  1  0.76142800  0.15361500  0.15185100  1
  F  F20  1  0.73857200  0.15361500  0.65185100  1
  F  F21  1  0.71377600  0.00000000  0.46151800  1
  F  F22  1  0.50000000  0.86805100  0.00000000  1
  F  F23  1  0.78622400  0.00000000  0.96151800  1
  F  F24  1  0.76142800  0.84638500  0.15185100  1
  F  F25  1  0.73857200  0.84638500  0.65185100  1
  F  F26  1  0.00081200  0.00000000  0.70367900  1
  F  F27  1  0.50000000  0.63194900  0.50000000  1
  F  F28  1  0.00000000  0.86805100  0.50000000  1
  F  F29  1  0.49918800  0.50000000  0.29632100  1
  F  F30  1  0.76142800  0.65361500  0.34814900  1
  F  F31  1  0.73857200  0.65361500  0.84814900  1
  F  F32  1  0.71377600  0.50000000  0.03848200  1
  F  F33  1  0.00000000  0.63194900  0.00000000  1
  F  F34  1  0.78622400  0.50000000  0.53848200  1
  F  F35  1  0.76142800  0.34638500  0.34814900  1
  F  F36  1  0.73857200  0.34638500  0.84814900  1
  F  F37  1  0.00081200  0.50000000  0.79632100  1
  F  F38  1  0.99918800  0.50000000  0.20367900  1
  F  F39  1  0.26142800  0.65361500  0.15185100  1
  F  F40  1  0.23857200  0.65361500  0.65185100  1
  F  F41  1  0.21377600  0.50000000  0.46151800  1
  F  F42  1  0.00000000  0.36805100  0.00000000  1
  F  F43  1  0.28622400  0.50000000  0.96151800  1
  F  F44  1  0.26142800  0.34638500  0.15185100  1
  F  F45  1  0.23857200  0.34638500  0.65185100  1
  F  F46  1  0.50081200  0.50000000  0.70367900  1
  F  F47  1  0.00000000  0.13194900  0.50000000  1
