# generated using pymatgen
data_Ti3MnSb2(PO4)6
_symmetry_space_group_name_H-M   'P 1'
_cell_length_a   8.77136760
_cell_length_b   8.77136760
_cell_length_c   21.95502563
_cell_angle_alpha   90.00000000
_cell_angle_beta   90.00000000
_cell_angle_gamma   120.00000000
_symmetry_Int_Tables_number   1
_chemical_formula_structural   Ti3MnSb2(PO4)6
_chemical_formula_sum   'Ti9 Mn3 Sb6 P18 O72'
_cell_volume   1462.84800704
_cell_formula_units_Z   3
loop_
 _symmetry_equiv_pos_site_id
 _symmetry_equiv_pos_as_xyz
  1  'x, y, z'
loop_
 _atom_site_type_symbol
 _atom_site_label
 _atom_site_symmetry_multiplicity
 _atom_site_fract_x
 _atom_site_fract_y
 _atom_site_fract_z
 _atom_site_occupancy
  Ti  Ti0  1  0.00000000  0.00000000  0.14699400  1
  Ti  Ti1  1  0.33333333  0.66666667  0.01693267  1
  Ti  Ti2  1  0.33333333  0.66666667  0.31614067  1
  Ti  Ti3  1  0.66666667  0.33333333  0.48032733  1
  Ti  Ti4  1  0.00000000  0.00000000  0.35026600  1
  Ti  Ti5  1  0.00000000  0.00000000  0.64947400  1
  Ti  Ti6  1  0.33333333  0.66666667  0.81366067  1
  Ti  Ti7  1  0.66666667  0.33333333  0.68359933  1
  Ti  Ti8  1  0.66666667  0.33333333  0.98280733  1
  Mn  Mn9  1  0.66666667  0.33333333  0.18182833  1
  Mn  Mn10  1  0.33333333  0.66666667  0.51516167  1
  Mn  Mn11  1  0.00000000  0.00000000  0.84849500  1
  Sb  Sb12  1  0.66666667  0.33333333  0.32800533  1
  Sb  Sb13  1  0.33333333  0.66666667  0.16344967  1
  Sb  Sb14  1  0.33333333  0.66666667  0.66133867  1
  Sb  Sb15  1  0.00000000  0.00000000  0.49678300  1
  Sb  Sb16  1  0.00000000  0.00000000  0.99467200  1
  Sb  Sb17  1  0.66666667  0.33333333  0.83011633  1
  P  P18  1  0.96304000  0.33350600  0.08383000  1
  P  P19  1  0.37046600  0.03696000  0.08383000  1
  P  P20  1  0.00377100  0.71132300  0.25060300  1
  P  P21  1  0.28867700  0.29244800  0.25060300  1
  P  P22  1  0.70755200  0.99622900  0.25060300  1
  P  P23  1  0.66649400  0.62953400  0.08383000  1
  P  P24  1  0.62970667  0.66683933  0.41716333  1
  P  P25  1  0.03713267  0.37029333  0.41716333  1
  P  P26  1  0.67043767  0.04465633  0.58393633  1
  P  P27  1  0.95534367  0.62578133  0.58393633  1
  P  P28  1  0.37421867  0.32956233  0.58393633  1
  P  P29  1  0.33316067  0.96286733  0.41716333  1
  P  P30  1  0.29637333  0.00017267  0.75049667  1
  P  P31  1  0.70379933  0.70362667  0.75049667  1
  P  P32  1  0.33710433  0.37798967  0.91726967  1
  P  P33  1  0.62201033  0.95911467  0.91726967  1
  P  P34  1  0.04088533  0.66289567  0.91726967  1
  P  P35  1  0.99982733  0.29620067  0.75049667  1
  O  O36  1  0.80539400  0.99108900  0.30810400  1
  O  O37  1  0.00891100  0.81430500  0.30810400  1
  O  O38  1  0.98627833  0.16762067  0.08053467  1
  O  O39  1  0.18569500  0.19460600  0.30810400  1
  O  O40  1  0.88354167  0.34455733  0.14310333  1
  O  O41  1  0.15601233  0.49998167  0.08227767  1
  O  O42  1  0.18134233  0.01372167  0.08053467  1
  O  O43  1  0.34396933  0.84398767  0.08227767  1
  O  O44  1  0.00275100  0.80720400  0.19208900  1
  O  O45  1  0.50001833  0.65603067  0.08227767  1
  O  O46  1  0.83725667  0.52508833  0.25625133  1
  O  O47  1  0.19279600  0.19554700  0.19208900  1
  O  O48  1  0.46101567  0.11645833  0.14310333  1
  O  O49  1  0.83237933  0.81865767  0.08053467  1
  O  O50  1  0.17128133  0.69101467  0.24838067  1
  O  O51  1  0.65544267  0.53898433  0.14310333  1
  O  O52  1  0.30898533  0.48026667  0.24838067  1
  O  O53  1  0.47491167  0.31216833  0.25625133  1
  O  O54  1  0.51973333  0.82871867  0.24838067  1
  O  O55  1  0.80445300  0.99724900  0.19208900  1
  O  O56  1  0.46888800  0.13995200  0.02593100  1
  O  O57  1  0.68783167  0.16274333  0.25625133  1
  O  O58  1  0.67106400  0.53111200  0.02593100  1
  O  O59  1  0.86004800  0.32893600  0.02593100  1
  O  O60  1  0.47206067  0.32442233  0.64143733  1
  O  O61  1  0.67557767  0.14763833  0.64143733  1
  O  O62  1  0.65294500  0.50095400  0.41386800  1
  O  O63  1  0.85236167  0.52793933  0.64143733  1
  O  O64  1  0.55020833  0.67789067  0.47643667  1
  O  O65  1  0.82267900  0.83331500  0.41561100  1
  O  O66  1  0.84800900  0.34705500  0.41386800  1
  O  O67  1  0.01063600  0.17732100  0.41561100  1
  O  O68  1  0.66941767  0.14053733  0.52542233  1
  O  O69  1  0.16668500  0.98936400  0.41561100  1
  O  O70  1  0.50392333  0.85842167  0.58958467  1
  O  O71  1  0.85946267  0.52888033  0.52542233  1
  O  O72  1  0.12768233  0.44979167  0.47643667  1
  O  O73  1  0.49904600  0.15199100  0.41386800  1
  O  O74  1  0.83794800  0.02434800  0.58171400  1
  O  O75  1  0.32210933  0.87231767  0.47643667  1
  O  O76  1  0.97565200  0.81360000  0.58171400  1
  O  O77  1  0.14157833  0.64550167  0.58958467  1
  O  O78  1  0.18640000  0.16205200  0.58171400  1
  O  O79  1  0.47111967  0.33058233  0.52542233  1
  O  O80  1  0.13555467  0.47328533  0.35926433  1
  O  O81  1  0.35449833  0.49607667  0.58958467  1
  O  O82  1  0.33773067  0.86444533  0.35926433  1
  O  O83  1  0.52671467  0.66226933  0.35926433  1
  O  O84  1  0.13872733  0.65775567  0.97477067  1
  O  O85  1  0.34224433  0.48097167  0.97477067  1
  O  O86  1  0.31961167  0.83428733  0.74720133  1
  O  O87  1  0.51902833  0.86127267  0.97477067  1
  O  O88  1  0.21687500  0.01122400  0.80977000  1
  O  O89  1  0.48934567  0.16664833  0.74894433  1
  O  O90  1  0.51467567  0.68038833  0.74720133  1
  O  O91  1  0.67730267  0.51065433  0.74894433  1
  O  O92  1  0.33608433  0.47387067  0.85875567  1
  O  O93  1  0.83335167  0.32269733  0.74894433  1
  O  O94  1  0.17059000  0.19175500  0.92291800  1
  O  O95  1  0.52612933  0.86221367  0.85875567  1
  O  O96  1  0.79434900  0.78312500  0.80977000  1
  O  O97  1  0.16571267  0.48532433  0.74720133  1
  O  O98  1  0.50461467  0.35768133  0.91504733  1
  O  O99  1  0.98877600  0.20565100  0.80977000  1
  O  O100  1  0.64231867  0.14693333  0.91504733  1
  O  O101  1  0.80824500  0.97883500  0.92291800  1
  O  O102  1  0.85306667  0.49538533  0.91504733  1
  O  O103  1  0.13778633  0.66391567  0.85875567  1
  O  O104  1  0.80222133  0.80661867  0.69259767  1
  O  O105  1  0.02116500  0.82941000  0.92291800  1
  O  O106  1  0.00439733  0.19777867  0.69259767  1
  O  O107  1  0.19338133  0.99560267  0.69259767  1
