# generated using pymatgen
data_Li4Mn5(FeO6)2
_symmetry_space_group_name_H-M   'P 1'
_cell_length_a   5.15396200
_cell_length_b   9.21855800
_cell_length_c   10.04089034
_cell_angle_alpha   90.00000000
_cell_angle_beta   102.65510650
_cell_angle_gamma   90.00000000
_symmetry_Int_Tables_number   1
_chemical_formula_structural   Li4Mn5(FeO6)2
_chemical_formula_sum   'Li8 Mn10 Fe4 O24'
_cell_volume   465.47421499
_cell_formula_units_Z   2
loop_
 _symmetry_equiv_pos_site_id
 _symmetry_equiv_pos_as_xyz
  1  'x, y, z'
loop_
 _atom_site_type_symbol
 _atom_site_label
 _atom_site_symmetry_multiplicity
 _atom_site_fract_x
 _atom_site_fract_y
 _atom_site_fract_z
 _atom_site_occupancy
  Li  Li0  1  0.00311200  0.08586300  0.26166400  1
  Li  Li1  1  0.49544100  0.06897100  0.74189500  1
  Li  Li2  1  0.76118800  0.41961300  0.49268000  1
  Li  Li3  1  0.50443700  0.41931900  0.73618300  1
  Li  Li4  1  0.99688800  0.58586300  0.73833600  1
  Li  Li5  1  0.50455900  0.56897100  0.25810500  1
  Li  Li6  1  0.23881200  0.91961300  0.50732000  1
  Li  Li7  1  0.49556300  0.91931900  0.26381700  1
  Mn  Mn8  1  0.25757400  0.08426600  0.00689600  1
  Mn  Mn9  1  0.74565600  0.07657000  0.51020600  1
  Mn  Mn10  1  0.00014500  0.25327600  0.74147400  1
  Mn  Mn11  1  0.24055900  0.41970600  0.99050800  1
  Mn  Mn12  1  0.51272900  0.25186200  0.25714000  1
  Mn  Mn13  1  0.25434400  0.57657000  0.48979400  1
  Mn  Mn14  1  0.74242600  0.58426600  0.99310400  1
  Mn  Mn15  1  0.99985500  0.75327600  0.25852600  1
  Mn  Mn16  1  0.48727100  0.75186200  0.74286000  1
  Mn  Mn17  1  0.75944100  0.91970600  0.00949200  1
  Fe  Fe18  1  0.23470700  0.25502100  0.48480900  1
  Fe  Fe19  1  0.75552600  0.25463500  0.00529700  1
  Fe  Fe20  1  0.24447400  0.75463500  0.99470300  1
  Fe  Fe21  1  0.76529300  0.75502100  0.51519100  1
  O  O22  1  0.11431500  0.11243400  0.62069600  1
  O  O23  1  0.88166800  0.07860100  0.90555600  1
  O  O24  1  0.16120300  0.23527800  0.12184900  1
  O  O25  1  0.86928300  0.23988100  0.37489600  1
  O  O26  1  0.60875400  0.09604800  0.13211800  1
  O  O27  1  0.38283200  0.08764900  0.39352700  1
  O  O28  1  0.14839100  0.41889100  0.60053200  1
  O  O29  1  0.64336500  0.23033300  0.62764300  1
  O  O30  1  0.89185200  0.40430700  0.86313400  1
  O  O31  1  0.34770800  0.26543300  0.87263800  1
  O  O32  1  0.60488200  0.43014100  0.09842200  1
  O  O33  1  0.11833200  0.57860100  0.09444400  1
  O  O34  1  0.39821400  0.39753700  0.37409900  1
  O  O35  1  0.88568500  0.61243400  0.37930400  1
  O  O36  1  0.13071700  0.73988100  0.62510400  1
  O  O37  1  0.61716800  0.58764900  0.60647300  1
  O  O38  1  0.83879700  0.73527800  0.87815100  1
  O  O39  1  0.39124600  0.59604800  0.86788200  1
  O  O40  1  0.10814800  0.90430700  0.13686600  1
  O  O41  1  0.65229200  0.76543300  0.12736200  1
  O  O42  1  0.35663500  0.73033300  0.37235700  1
  O  O43  1  0.85160900  0.91889100  0.39946800  1
  O  O44  1  0.60178600  0.89753700  0.62590100  1
  O  O45  1  0.39511800  0.93014100  0.90157800  1
