# generated using pymatgen
data_Fe3Cu2Te(PO4)6
_symmetry_space_group_name_H-M   'P 1'
_cell_length_a   8.66455597
_cell_length_b   8.66455597
_cell_length_c   21.23613859
_cell_angle_alpha   90.00000000
_cell_angle_beta   90.00000000
_cell_angle_gamma   120.00000000
_symmetry_Int_Tables_number   1
_chemical_formula_structural   Fe3Cu2Te(PO4)6
_chemical_formula_sum   'Fe9 Cu6 Te3 P18 O72'
_cell_volume   1380.69834810
_cell_formula_units_Z   3
loop_
 _symmetry_equiv_pos_site_id
 _symmetry_equiv_pos_as_xyz
  1  'x, y, z'
loop_
 _atom_site_type_symbol
 _atom_site_label
 _atom_site_symmetry_multiplicity
 _atom_site_fract_x
 _atom_site_fract_y
 _atom_site_fract_z
 _atom_site_occupancy
  Fe  Fe0  1  0.66666667  0.33333333  0.18873333  1
  Fe  Fe1  1  0.33333333  0.66666667  0.31118867  1
  Fe  Fe2  1  0.33333333  0.66666667  0.02376167  1
  Fe  Fe3  1  0.33333333  0.66666667  0.52206667  1
  Fe  Fe4  1  0.00000000  0.00000000  0.64452200  1
  Fe  Fe5  1  0.00000000  0.00000000  0.35709500  1
  Fe  Fe6  1  0.00000000  0.00000000  0.85540000  1
  Fe  Fe7  1  0.66666667  0.33333333  0.97785533  1
  Fe  Fe8  1  0.66666667  0.33333333  0.69042833  1
  Cu  Cu9  1  0.66666667  0.33333333  0.32401533  1
  Cu  Cu10  1  0.33333333  0.66666667  0.16653967  1
  Cu  Cu11  1  0.33333333  0.66666667  0.65734867  1
  Cu  Cu12  1  0.00000000  0.00000000  0.49987300  1
  Cu  Cu13  1  0.00000000  0.00000000  0.99068200  1
  Cu  Cu14  1  0.66666667  0.33333333  0.83320633  1
  Te  Te15  1  0.00000000  0.00000000  0.14298400  1
  Te  Te16  1  0.66666667  0.33333333  0.47631733  1
  Te  Te17  1  0.33333333  0.66666667  0.80965067  1
  P  P18  1  0.95979300  0.62187200  0.08500300  1
  P  P19  1  0.66207900  0.04020700  0.08500300  1
  P  P20  1  0.37812800  0.33792100  0.08500300  1
  P  P21  1  0.29419133  0.99694067  0.25207567  1
  P  P22  1  0.00305933  0.29725067  0.25207567  1
  P  P23  1  0.70274933  0.70580867  0.25207567  1
  P  P24  1  0.62645967  0.95520533  0.41833633  1
  P  P25  1  0.32874567  0.37354033  0.41833633  1
  P  P26  1  0.04479467  0.67125433  0.41833633  1
  P  P27  1  0.96085800  0.33027400  0.58540900  1
  P  P28  1  0.66972600  0.63058400  0.58540900  1
  P  P29  1  0.36941600  0.03914200  0.58540900  1
  P  P30  1  0.29312633  0.28853867  0.75166967  1
  P  P31  1  0.99541233  0.70687367  0.75166967  1
  P  P32  1  0.71146133  0.00458767  0.75166967  1
  P  P33  1  0.62752467  0.66360733  0.91874233  1
  P  P34  1  0.33639267  0.96391733  0.91874233  1
  P  P35  1  0.03608267  0.37247533  0.91874233  1
  O  O36  1  0.46395433  0.32379267  0.02441567  1
  O  O37  1  0.85983833  0.53604567  0.02441567  1
  O  O38  1  0.47799933  0.16763667  0.25343767  1
  O  O39  1  0.67620733  0.14016167  0.02441567  1
  O  O40  1  0.19301833  0.99140667  0.18746267  1
  O  O41  1  0.30944600  0.82812800  0.24478100  1
  O  O42  1  0.83236333  0.31036267  0.25343767  1
  O  O43  1  0.17187200  0.48131800  0.24478100  1
  O  O44  1  0.86130367  0.53088933  0.14477533  1
  O  O45  1  0.51868200  0.69055400  0.24478100  1
  O  O46  1  0.97846133  0.81917067  0.08019467  1
  O  O47  1  0.66958567  0.13869633  0.14477533  1
  O  O48  1  0.00859333  0.20161167  0.18746267  1
  O  O49  1  0.68963733  0.52200067  0.25343767  1
  O  O50  1  0.15061833  0.65250467  0.08905767  1
  O  O51  1  0.79838833  0.80698167  0.18746267  1
  O  O52  1  0.50188633  0.84938167  0.08905767  1
  O  O53  1  0.84070933  0.02153867  0.08019467  1
  O  O54  1  0.34749533  0.49811367  0.08905767  1
  O  O55  1  0.46911067  0.33041433  0.14477533  1
  O  O56  1  0.00272867  0.19165433  0.30861033  1
  O  O57  1  0.18082933  0.15929067  0.08019467  1
  O  O58  1  0.80834567  0.81107433  0.30861033  1
  O  O59  1  0.18892567  0.99727133  0.30861033  1
  O  O60  1  0.13062100  0.65712600  0.35774900  1
  O  O61  1  0.52650500  0.86937900  0.35774900  1
  O  O62  1  0.14466600  0.50097000  0.58677100  1
  O  O63  1  0.34287400  0.47349500  0.35774900  1
  O  O64  1  0.85968500  0.32474000  0.52079600  1
  O  O65  1  0.97611267  0.16146133  0.57811433  1
  O  O66  1  0.49903000  0.64369600  0.58677100  1
  O  O67  1  0.83853867  0.81465133  0.57811433  1
  O  O68  1  0.52797033  0.86422267  0.47810867  1
  O  O69  1  0.18534867  0.02388733  0.57811433  1
  O  O70  1  0.64512800  0.15250400  0.41352800  1
  O  O71  1  0.33625233  0.47202967  0.47810867  1
  O  O72  1  0.67526000  0.53494500  0.52079600  1
  O  O73  1  0.35630400  0.85533400  0.58677100  1
  O  O74  1  0.81728500  0.98583800  0.42239100  1
  O  O75  1  0.46505500  0.14031500  0.52079600  1
  O  O76  1  0.16855300  0.18271500  0.42239100  1
  O  O77  1  0.50737600  0.35487200  0.41352800  1
  O  O78  1  0.01416200  0.83144700  0.42239100  1
  O  O79  1  0.13577733  0.66374767  0.47810867  1
  O  O80  1  0.66939533  0.52498767  0.64194367  1
  O  O81  1  0.84749600  0.49262400  0.41352800  1
  O  O82  1  0.47501233  0.14440767  0.64194367  1
  O  O83  1  0.85559233  0.33060467  0.64194367  1
  O  O84  1  0.79728767  0.99045933  0.69108233  1
  O  O85  1  0.19317167  0.20271233  0.69108233  1
  O  O86  1  0.81133267  0.83430333  0.92010433  1
  O  O87  1  0.00954067  0.80682833  0.69108233  1
  O  O88  1  0.52635167  0.65807333  0.85412933  1
  O  O89  1  0.64277933  0.49479467  0.91144767  1
  O  O90  1  0.16569667  0.97702933  0.92010433  1
  O  O91  1  0.50520533  0.14798467  0.91144767  1
  O  O92  1  0.19463700  0.19755600  0.81144200  1
  O  O93  1  0.85201533  0.35722067  0.91144767  1
  O  O94  1  0.31179467  0.48583733  0.74686133  1
  O  O95  1  0.00291900  0.80536300  0.81144200  1
  O  O96  1  0.34192667  0.86827833  0.85412933  1
  O  O97  1  0.02297067  0.18866733  0.92010433  1
  O  O98  1  0.48395167  0.31917133  0.75572433  1
  O  O99  1  0.13172167  0.47364833  0.85412933  1
  O  O100  1  0.83521967  0.51604833  0.75572433  1
  O  O101  1  0.17404267  0.68820533  0.74686133  1
  O  O102  1  0.68082867  0.16478033  0.75572433  1
  O  O103  1  0.80244400  0.99708100  0.81144200  1
  O  O104  1  0.33606200  0.85832100  0.97527700  1
  O  O105  1  0.51416267  0.82595733  0.74686133  1
  O  O106  1  0.14167900  0.47774100  0.97527700  1
  O  O107  1  0.52225900  0.66393800  0.97527700  1
