# generated using pymatgen
data_Co6O5F7
_symmetry_space_group_name_H-M   'P 1'
_cell_length_a   6.36537800
_cell_length_b   6.89059600
_cell_length_c   9.06438772
_cell_angle_alpha   90.00000000
_cell_angle_beta   90.21143081
_cell_angle_gamma   90.00000000
_symmetry_Int_Tables_number   1
_chemical_formula_structural   Co6O5F7
_chemical_formula_sum   'Co12 O10 F14'
_cell_volume   397.57265232
_cell_formula_units_Z   2
loop_
 _symmetry_equiv_pos_site_id
 _symmetry_equiv_pos_as_xyz
  1  'x, y, z'
loop_
 _atom_site_type_symbol
 _atom_site_label
 _atom_site_symmetry_multiplicity
 _atom_site_fract_x
 _atom_site_fract_y
 _atom_site_fract_z
 _atom_site_occupancy
  Co  Co0  1  0.50000000  0.50160600  0.00000000  1
  Co  Co1  1  0.96305700  0.00988200  0.65987900  1
  Co  Co2  1  0.03694300  0.00988200  0.34012100  1
  Co  Co3  1  0.49788750  0.00373850  0.84296000  1
  Co  Co4  1  0.50211250  0.00373850  0.15704000  1
  Co  Co5  1  0.50000000  0.97231400  0.50000000  1
  Co  Co6  1  0.00000000  0.00160600  0.00000000  1
  Co  Co7  1  0.46305700  0.50988200  0.65987900  1
  Co  Co8  1  0.53694300  0.50988200  0.34012100  1
  Co  Co9  1  0.99788750  0.50373850  0.84296000  1
  Co  Co10  1  0.00211250  0.50373850  0.15704000  1
  Co  Co11  1  0.00000000  0.47231400  0.50000000  1
  O  O12  1  0.50000000  0.68338900  0.50000000  1
  O  O13  1  0.30776900  0.00457600  0.00108700  1
  O  O14  1  0.32109800  0.99672400  0.32053000  1
  O  O15  1  0.69223100  0.00457600  0.99891300  1
  O  O16  1  0.67890200  0.99672400  0.67947000  1
  O  O17  1  0.00000000  0.18338900  0.50000000  1
  O  O18  1  0.80776900  0.50457600  0.00108700  1
  O  O19  1  0.82109800  0.49672400  0.32053000  1
  O  O20  1  0.19223100  0.50457600  0.99891300  1
  O  O21  1  0.17890200  0.49672400  0.67947000  1
  F  F22  1  0.49214300  0.69703400  0.83217600  1
  F  F23  1  0.50785700  0.69703400  0.16782400  1
  F  F24  1  0.28759150  0.99848550  0.68239800  1
  F  F25  1  0.71240850  0.99848550  0.31760200  1
  F  F26  1  0.49475350  0.30998750  0.83170300  1
  F  F27  1  0.50524650  0.30998750  0.16829700  1
  F  F28  1  0.50000000  0.30183600  0.50000000  1
  F  F29  1  0.99214300  0.19703400  0.83217600  1
  F  F30  1  0.00785700  0.19703400  0.16782400  1
  F  F31  1  0.78759150  0.49848550  0.68239800  1
  F  F32  1  0.21240850  0.49848550  0.31760200  1
  F  F33  1  0.99475350  0.80998750  0.83170300  1
  F  F34  1  0.00524650  0.80998750  0.16829700  1
  F  F35  1  0.00000000  0.80183600  0.50000000  1
