# generated using pymatgen
data_Li2Co(CO3)2
_symmetry_space_group_name_H-M   'P 1'
_cell_length_a   7.68941900
_cell_length_b   9.59659500
_cell_length_c   7.82624818
_cell_angle_alpha   90.00000000
_cell_angle_beta   110.87464201
_cell_angle_gamma   90.00000000
_symmetry_Int_Tables_number   1
_chemical_formula_structural   Li2Co(CO3)2
_chemical_formula_sum   'Li8 Co4 C8 O24'
_cell_volume   539.60951788
_cell_formula_units_Z   4
loop_
 _symmetry_equiv_pos_site_id
 _symmetry_equiv_pos_as_xyz
  1  'x, y, z'
loop_
 _atom_site_type_symbol
 _atom_site_label
 _atom_site_symmetry_multiplicity
 _atom_site_fract_x
 _atom_site_fract_y
 _atom_site_fract_z
 _atom_site_occupancy
  Li  Li0  1  0.54714500  0.36769800  0.24447700  1
  Li  Li1  1  0.19542700  0.86038300  0.92391400  1
  Li  Li2  1  0.80457300  0.36038300  0.07608600  1
  Li  Li3  1  0.45285500  0.86769800  0.75552300  1
  Li  Li4  1  0.98472000  0.13423900  0.71212000  1
  Li  Li5  1  0.71382900  0.63632000  0.42016500  1
  Li  Li6  1  0.28617100  0.13632000  0.57983500  1
  Li  Li7  1  0.01528000  0.63423900  0.28788000  1
  Co  Co8  1  0.67425300  0.87486300  0.18352600  1
  Co  Co9  1  0.32574700  0.37486300  0.81647400  1
  Co  Co10  1  0.17834800  0.61783400  0.68886000  1
  Co  Co11  1  0.82165200  0.11783400  0.31114000  1
  C  C12  1  0.55178000  0.60592900  0.01271000  1
  C  C13  1  0.44822000  0.10592900  0.98729000  1
  C  C14  1  0.91586100  0.00565000  0.01227600  1
  C  C15  1  0.08413900  0.50565000  0.98772400  1
  C  C16  1  0.40681100  0.50203700  0.50143200  1
  C  C17  1  0.59318900  0.00203700  0.49856800  1
  C  C18  1  0.04877400  0.88480300  0.51851400  1
  C  C19  1  0.95122600  0.38480300  0.48148600  1
  O  O20  1  0.66359000  0.66435800  0.15905200  1
  O  O21  1  0.54935200  0.17963700  0.12401900  1
  O  O22  1  0.45402200  0.96922200  0.98957300  1
  O  O23  1  0.54597800  0.46922200  0.01042700  1
  O  O24  1  0.45064800  0.67963700  0.87598100  1
  O  O25  1  0.89504400  0.12189700  0.09202000  1
  O  O26  1  0.33641000  0.16435800  0.84094800  1
  O  O27  1  0.83915800  0.89112500  0.03837100  1
  O  O28  1  0.98613700  0.50470300  0.09075300  1
  O  O29  1  0.01386300  0.00470300  0.90924700  1
  O  O30  1  0.16084200  0.39112500  0.96162900  1
  O  O31  1  0.41887800  0.39587900  0.60907900  1
  O  O32  1  0.10495600  0.62189700  0.90798000  1
  O  O33  1  0.48862000  0.00838200  0.59498600  1
  O  O34  1  0.28854500  0.60291300  0.49043100  1
  O  O35  1  0.71145500  0.10291300  0.50956900  1
  O  O36  1  0.51138000  0.50838200  0.40501400  1
  O  O37  1  0.17262000  0.83285300  0.66409600  1
  O  O38  1  0.58112200  0.89587900  0.39092100  1
  O  O39  1  0.94912000  0.51922700  0.50538300  1
  O  O40  1  0.07000200  0.30354800  0.59538100  1
  O  O41  1  0.92999800  0.80354800  0.40461900  1
  O  O42  1  0.05088000  0.01922700  0.49461700  1
  O  O43  1  0.82738000  0.33285300  0.33590400  1
