# generated using pymatgen
data_Li2V3CoO8
_symmetry_space_group_name_H-M   'P 1'
_cell_length_a   11.88861199
_cell_length_b   11.88861199
_cell_length_c   14.57362933
_cell_angle_alpha   90.00000000
_cell_angle_beta   90.00000000
_cell_angle_gamma   120.00000000
_symmetry_Int_Tables_number   1
_chemical_formula_structural   Li2V3CoO8
_chemical_formula_sum   'Li24 V36 Co12 O96'
_cell_volume   1783.85954863
_cell_formula_units_Z   12
loop_
 _symmetry_equiv_pos_site_id
 _symmetry_equiv_pos_as_xyz
  1  'x, y, z'
loop_
 _atom_site_type_symbol
 _atom_site_label
 _atom_site_symmetry_multiplicity
 _atom_site_fract_x
 _atom_site_fract_y
 _atom_site_fract_z
 _atom_site_occupancy
  Li  Li0  1  0.08476300  0.66765800  0.54225000  1
  Li  Li1  1  0.33333333  0.66666667  0.41992533  1
  Li  Li2  1  0.33585100  0.16752300  0.41667900  1
  Li  Li3  1  0.66567533  0.08377167  0.20891667  1
  Li  Li4  1  0.58289500  0.91523700  0.54225000  1
  Li  Li5  1  0.49833867  0.99748233  0.75001233  1
  Li  Li6  1  0.83247700  0.16832800  0.41667900  1
  Li  Li7  1  0.66666667  0.33333333  0.70689833  1
  Li  Li8  1  0.75142967  0.00099133  0.87558333  1
  Li  Li9  1  0.00000000  0.00000000  0.75325867  1
  Li  Li10  1  0.00251767  0.50085633  0.75001233  1
  Li  Li11  1  0.33234200  0.41710500  0.54225000  1
  Li  Li12  1  0.24956167  0.24857033  0.87558333  1
  Li  Li13  1  0.16500533  0.33081567  0.08334567  1
  Li  Li14  1  0.49914367  0.50166133  0.75001233  1
  Li  Li15  1  0.33333333  0.66666667  0.04023167  1
  Li  Li16  1  0.41809633  0.33432467  0.20891667  1
  Li  Li17  1  0.66666667  0.33333333  0.08659200  1
  Li  Li18  1  0.66918433  0.83418967  0.08334567  1
  Li  Li19  1  0.99900867  0.75043833  0.87558333  1
  Li  Li20  1  0.91622833  0.58190367  0.20891667  1
  Li  Li21  1  0.83167200  0.66414900  0.41667900  1
  Li  Li22  1  0.16581033  0.83499467  0.08334567  1
  Li  Li23  1  0.00000000  0.00000000  0.37356500  1
  V  V24  1  0.08027367  0.91346233  0.54229633  1
  V  V25  1  0.41987100  0.83347800  0.20896300  1
  V  V26  1  0.41733933  0.08482867  0.20772067  1
  V  V27  1  0.16740467  0.83420333  0.71225433  1
  V  V28  1  0.33415600  0.91599400  0.54105400  1
  V  V29  1  0.49913000  0.99986800  0.37892100  1
  V  V30  1  0.58183800  0.66584400  0.54105400  1
  V  V31  1  0.58231933  0.41918967  0.54238667  1
  V  V32  1  0.58081033  0.16312967  0.54238667  1
  V  V33  1  0.83318867  0.91972633  0.54229633  1
  V  V34  1  0.66679867  0.83259533  0.71225433  1
  V  V35  1  0.83687033  0.41768067  0.54238667  1
  V  V36  1  0.74694033  0.24679567  0.87562967  1
  V  V37  1  0.08653767  0.16681133  0.54229633  1
  V  V38  1  0.08400600  0.41816200  0.54105400  1
  V  V39  1  0.83407133  0.16753667  0.04558767  1
  V  V40  1  0.00082267  0.24932733  0.87438733  1
  V  V41  1  0.16579667  0.33320133  0.71225433  1
  V  V42  1  0.24850467  0.99917733  0.87438733  1
  V  V43  1  0.24898600  0.75252300  0.87572000  1
  V  V44  1  0.24747700  0.49646300  0.87572000  1
  V  V45  1  0.49985533  0.25305967  0.87562967  1
  V  V46  1  0.33346533  0.16592867  0.04558767  1
  V  V47  1  0.50353700  0.75101400  0.87572000  1
  V  V48  1  0.41360700  0.58012900  0.20896300  1
  V  V49  1  0.75320433  0.50014467  0.87562967  1
  V  V50  1  0.75067267  0.75149533  0.87438733  1
  V  V51  1  0.50073800  0.50087000  0.37892100  1
  V  V52  1  0.66748933  0.58266067  0.20772067  1
  V  V53  1  0.83246333  0.66653467  0.04558767  1
  V  V54  1  0.91517133  0.33251067  0.20772067  1
  V  V55  1  0.91565267  0.08585633  0.20905333  1
  V  V56  1  0.91414367  0.82979633  0.20905333  1
  V  V57  1  0.16652200  0.58639300  0.20896300  1
  V  V58  1  0.00013200  0.49926200  0.37892100  1
  V  V59  1  0.17020367  0.08434733  0.20905333  1
  Co  Co60  1  0.83261000  0.16668100  0.66694500  1
  Co  Co61  1  0.33407100  0.16739000  0.66694500  1
  Co  Co62  1  0.33333333  0.66666667  0.66687567  1
  Co  Co63  1  0.83331900  0.66592900  0.66694500  1
  Co  Co64  1  0.49927667  0.50001433  0.00027833  1
  Co  Co65  1  0.00073767  0.50072333  0.00027833  1
  Co  Co66  1  0.00000000  0.00000000  0.00020900  1
  Co  Co67  1  0.49998567  0.99926233  0.00027833  1
  Co  Co68  1  0.16594333  0.83334767  0.33361167  1
  Co  Co69  1  0.66740433  0.83405667  0.33361167  1
  Co  Co70  1  0.66666667  0.33333333  0.33354233  1
  Co  Co71  1  0.16665233  0.33259567  0.33361167  1
  O  O72  1  0.32601767  0.14628833  0.28050333  1
  O  O73  1  0.14835333  0.56168367  0.45556467  1
  O  O74  1  0.33333333  0.66666667  0.28284767  1
  O  O75  1  0.15861167  0.08278833  0.47713833  1
  O  O76  1  0.48655633  0.99337067  0.13642167  1
  O  O77  1  0.34886833  0.91955867  0.28744267  1
  O  O78  1  0.17348100  0.84677700  0.46975500  1
  O  O79  1  0.01711567  0.76948833  0.62770833  1
  O  O80  1  0.56244333  0.15045867  0.29401867  1
  O  O81  1  0.56384500  0.91429400  0.29437500  1
  O  O82  1  0.23735700  0.98446500  0.62077600  1
  O  O83  1  0.25468200  0.77089000  0.62735200  1
  O  O84  1  0.41333033  0.85164667  0.45556467  1
  O  O85  1  0.42506267  0.07754133  0.46245733  1
  O  O86  1  0.44289500  0.35185300  0.45640900  1
  O  O87  1  0.43831633  0.58666967  0.45556467  1
  O  O88  1  0.64814700  0.09104200  0.45640900  1
  O  O89  1  0.48693733  0.00731567  0.61383667  1
  O  O90  1  0.31914533  0.90827067  0.79579067  1
  O  O91  1  0.85371167  0.17972933  0.28050333  1
  O  O92  1  0.51075633  0.25664567  0.61267867  1
  O  O93  1  0.66666667  0.33333333  0.47015033  1
  O  O94  1  0.51620800  0.74531800  0.62735200  1
  O  O95  1  0.67329600  0.82651900  0.46975500  1
  O  O96  1  0.74335433  0.25411067  0.61267867  1
  O  O97  1  0.74588933  0.48924367  0.61267867  1
  O  O98  1  0.74710800  0.76264300  0.62077600  1
  O  O99  1  0.75237267  0.98288433  0.62770833  1
  O  O100  1  0.57562467  0.89043833  0.78974233  1
  O  O101  1  0.92245867  0.34752133  0.46245733  1
  O  O102  1  0.91721167  0.07582333  0.47713833  1
  O  O103  1  0.59084333  0.17472167  0.81047167  1
  O  O104  1  0.99268433  0.47962167  0.61383667  1
  O  O105  1  0.81502000  0.89501700  0.78889800  1
  O  O106  1  0.00000000  0.00000000  0.61618100  1
  O  O107  1  0.82527833  0.41612167  0.81047167  1
  O  O108  1  0.15322300  0.32670400  0.46975500  1
  O  O109  1  0.01553500  0.25289200  0.62077600  1
  O  O110  1  0.84014767  0.18011033  0.80308833  1
  O  O111  1  0.68378233  0.10282167  0.96104167  1
  O  O112  1  0.22911000  0.48379200  0.62735200  1
  O  O113  1  0.23051167  0.24762733  0.62770833  1
  O  O114  1  0.90402367  0.31779833  0.95410933  1
  O  O115  1  0.92134867  0.10422333  0.96068533  1
  O  O116  1  0.07999700  0.18498000  0.78889800  1
  O  O117  1  0.09172933  0.41087467  0.79579067  1
  O  O118  1  0.10956167  0.68518633  0.78974233  1
  O  O119  1  0.10498300  0.92000300  0.78889800  1
  O  O120  1  0.31481367  0.42437533  0.78974233  1
  O  O121  1  0.15360400  0.34064900  0.94717000  1
  O  O122  1  0.98581200  0.24160400  0.12912400  1
  O  O123  1  0.52037833  0.51306267  0.61383667  1
  O  O124  1  0.17742300  0.58997900  0.94601200  1
  O  O125  1  0.33333333  0.66666667  0.80348367  1
  O  O126  1  0.18287467  0.07865133  0.96068533  1
  O  O127  1  0.33996267  0.15985233  0.80308833  1
  O  O128  1  0.41002100  0.58744400  0.94601200  1
  O  O129  1  0.41255600  0.82257700  0.94601200  1
  O  O130  1  0.41377467  0.09597633  0.95410933  1
  O  O131  1  0.41903933  0.31621767  0.96104167  1
  O  O132  1  0.24229133  0.22377167  0.12307567  1
  O  O133  1  0.58912533  0.68085467  0.79579067  1
  O  O134  1  0.58387833  0.40915667  0.81047167  1
  O  O135  1  0.25751000  0.50805500  0.14380500  1
  O  O136  1  0.65935100  0.81295500  0.94717000  1
  O  O137  1  0.48168667  0.22835033  0.12223133  1
  O  O138  1  0.66666667  0.33333333  0.94951433  1
  O  O139  1  0.49194500  0.74945500  0.14380500  1
  O  O140  1  0.81988967  0.66003733  0.80308833  1
  O  O141  1  0.68220167  0.58622533  0.95410933  1
  O  O142  1  0.50681433  0.51344367  0.13642167  1
  O  O143  1  0.35044900  0.43615500  0.29437500  1
  O  O144  1  0.89577667  0.81712533  0.96068533  1
  O  O145  1  0.89717833  0.58096067  0.96104167  1
  O  O146  1  0.57069033  0.65113167  0.28744267  1
  O  O147  1  0.58801533  0.43755667  0.29401867  1
  O  O148  1  0.74666367  0.51831333  0.12223133  1
  O  O149  1  0.75839600  0.74420800  0.12912400  1
  O  O150  1  0.77622833  0.01851967  0.12307567  1
  O  O151  1  0.77164967  0.25333633  0.12223133  1
  O  O152  1  0.98148033  0.75770867  0.12307567  1
  O  O153  1  0.82027067  0.67398233  0.28050333  1
  O  O154  1  0.65247867  0.57493733  0.46245733  1
  O  O155  1  0.18704500  0.84639600  0.94717000  1
  O  O156  1  0.84408967  0.92331233  0.27934533  1
  O  O157  1  0.00000000  0.00000000  0.13681700  1
  O  O158  1  0.84954133  0.41198467  0.29401867  1
  O  O159  1  0.00662933  0.49318567  0.13642167  1
  O  O160  1  0.07668767  0.92077733  0.27934533  1
  O  O161  1  0.07922267  0.15591033  0.27934533  1
  O  O162  1  0.08044133  0.42930967  0.28744267  1
  O  O163  1  0.08570600  0.64955100  0.29437500  1
  O  O164  1  0.90895800  0.55710500  0.45640900  1
  O  O165  1  0.25579200  0.01418800  0.12912400  1
  O  O166  1  0.25054500  0.74249000  0.14380500  1
  O  O167  1  0.92417667  0.84138833  0.47713833  1
