# generated using pymatgen
data_LiMn3(FeO4)2
_symmetry_space_group_name_H-M   'P 1'
_cell_length_a   6.06205021
_cell_length_b   6.06205021
_cell_length_c   14.62232885
_cell_angle_alpha   90.00000000
_cell_angle_beta   90.00000000
_cell_angle_gamma   120.00000000
_symmetry_Int_Tables_number   1
_chemical_formula_structural   LiMn3(FeO4)2
_chemical_formula_sum   'Li3 Mn9 Fe6 O24'
_cell_volume   465.35698466
_cell_formula_units_Z   3
loop_
 _symmetry_equiv_pos_site_id
 _symmetry_equiv_pos_as_xyz
  1  'x, y, z'
loop_
 _atom_site_type_symbol
 _atom_site_label
 _atom_site_symmetry_multiplicity
 _atom_site_fract_x
 _atom_site_fract_y
 _atom_site_fract_z
 _atom_site_occupancy
  Li  Li0  1  0.33333333  0.66666667  0.54356967  1
  Li  Li1  1  0.00000000  0.00000000  0.87690300  1
  Li  Li2  1  0.66666667  0.33333333  0.21023633  1
  Mn  Mn3  1  0.17233233  0.34466467  0.33374467  1
  Mn  Mn4  1  0.65533533  0.82766767  0.33374467  1
  Mn  Mn5  1  0.17233233  0.82766767  0.33374467  1
  Mn  Mn6  1  0.83899900  0.67799800  0.66707800  1
  Mn  Mn7  1  0.32200200  0.16100100  0.66707800  1
  Mn  Mn8  1  0.83899900  0.16100100  0.66707800  1
  Mn  Mn9  1  0.50566567  0.01133133  0.00041133  1
  Mn  Mn10  1  0.98866867  0.49433433  0.00041133  1
  Mn  Mn11  1  0.50566567  0.49433433  0.00041133  1
  Fe  Fe12  1  0.33333333  0.66666667  0.16931067  1
  Fe  Fe13  1  0.33333333  0.66666667  0.78786367  1
  Fe  Fe14  1  0.00000000  0.00000000  0.50264400  1
  Fe  Fe15  1  0.00000000  0.00000000  0.12119700  1
  Fe  Fe16  1  0.66666667  0.33333333  0.83597733  1
  Fe  Fe17  1  0.66666667  0.33333333  0.45453033  1
  O  O18  1  0.03751133  0.51875567  0.25664567  1
  O  O19  1  0.33333333  0.66666667  0.41568067  1
  O  O20  1  0.48124433  0.51875567  0.25664567  1
  O  O21  1  0.48124433  0.96248867  0.25664567  1
  O  O22  1  0.17897667  0.35795333  0.07739833  1
  O  O23  1  0.17897667  0.82102333  0.07739833  1
  O  O24  1  0.64204667  0.82102333  0.07739833  1
  O  O25  1  0.33333333  0.66666667  0.91354167  1
  O  O26  1  0.70417800  0.85208900  0.58997900  1
  O  O27  1  0.00000000  0.00000000  0.74901400  1
  O  O28  1  0.14791100  0.85208900  0.58997900  1
  O  O29  1  0.14791100  0.29582200  0.58997900  1
  O  O30  1  0.84564333  0.69128667  0.41073167  1
  O  O31  1  0.84564333  0.15435667  0.41073167  1
  O  O32  1  0.30871333  0.15435667  0.41073167  1
  O  O33  1  0.00000000  0.00000000  0.24687500  1
  O  O34  1  0.37084467  0.18542233  0.92331233  1
  O  O35  1  0.66666667  0.33333333  0.08234733  1
  O  O36  1  0.81457767  0.18542233  0.92331233  1
  O  O37  1  0.81457767  0.62915533  0.92331233  1
  O  O38  1  0.51231000  0.02462000  0.74406500  1
  O  O39  1  0.51231000  0.48769000  0.74406500  1
  O  O40  1  0.97538000  0.48769000  0.74406500  1
  O  O41  1  0.66666667  0.33333333  0.58020833  1
