# generated using pymatgen
data_Li2TiCo3O8
_symmetry_space_group_name_H-M   'P 1'
_cell_length_a   5.75910392
_cell_length_b   5.75910392
_cell_length_c   13.99621098
_cell_angle_alpha   90.00000000
_cell_angle_beta   90.00000000
_cell_angle_gamma   120.00000000
_symmetry_Int_Tables_number   1
_chemical_formula_structural   Li2TiCo3O8
_chemical_formula_sum   'Li6 Ti3 Co9 O24'
_cell_volume   402.02303872
_cell_formula_units_Z   3
loop_
 _symmetry_equiv_pos_site_id
 _symmetry_equiv_pos_as_xyz
  1  'x, y, z'
loop_
 _atom_site_type_symbol
 _atom_site_label
 _atom_site_symmetry_multiplicity
 _atom_site_fract_x
 _atom_site_fract_y
 _atom_site_fract_z
 _atom_site_occupancy
  Li  Li0  1  0.33333333  0.66666667  0.54332467  1
  Li  Li1  1  0.33333333  0.66666667  0.79000867  1
  Li  Li2  1  0.00000000  0.00000000  0.87665800  1
  Li  Li3  1  0.00000000  0.00000000  0.12334200  1
  Li  Li4  1  0.66666667  0.33333333  0.20999133  1
  Li  Li5  1  0.66666667  0.33333333  0.45667533  1
  Ti  Ti6  1  0.33333333  0.66666667  0.16666667  1
  Ti  Ti7  1  1.00000000  1.00000000  0.50000000  1
  Ti  Ti8  1  0.66666667  0.33333333  0.83333333  1
  Co  Co9  1  0.50000000  0.50000000  0.00000000  1
  Co  Co10  1  0.00000000  0.50000000  0.00000000  1
  Co  Co11  1  0.16666667  0.33333333  0.33333333  1
  Co  Co12  1  0.16666667  0.83333333  0.33333333  1
  Co  Co13  1  0.66666667  0.83333333  0.33333333  1
  Co  Co14  1  0.83333333  0.66666667  0.66666667  1
  Co  Co15  1  0.83333333  0.16666667  0.66666667  1
  Co  Co16  1  0.33333333  0.16666667  0.66666667  1
  Co  Co17  1  0.50000000  0.00000000  0.00000000  1
  O  O18  1  0.03055333  0.51527667  0.25713767  1
  O  O19  1  0.48472333  0.51527667  0.25713767  1
  O  O20  1  0.33333333  0.66666667  0.93036467  1
  O  O21  1  0.48472333  0.96944667  0.25713767  1
  O  O22  1  0.18194333  0.36388667  0.07619567  1
  O  O23  1  0.33333333  0.66666667  0.40296867  1
  O  O24  1  0.18194333  0.81805667  0.07619567  1
  O  O25  1  0.63611333  0.81805667  0.07619567  1
  O  O26  1  0.69722000  0.84861000  0.59047100  1
  O  O27  1  0.15139000  0.84861000  0.59047100  1
  O  O28  1  0.00000000  0.00000000  0.26369800  1
  O  O29  1  0.15139000  0.30278000  0.59047100  1
  O  O30  1  0.84861000  0.69722000  0.40952900  1
  O  O31  1  0.00000000  0.00000000  0.73630200  1
  O  O32  1  0.84861000  0.15139000  0.40952900  1
  O  O33  1  0.30278000  0.15139000  0.40952900  1
  O  O34  1  0.36388667  0.18194333  0.92380433  1
  O  O35  1  0.81805667  0.18194333  0.92380433  1
  O  O36  1  0.66666667  0.33333333  0.59703133  1
  O  O37  1  0.81805667  0.63611333  0.92380433  1
  O  O38  1  0.51527667  0.03055333  0.74286233  1
  O  O39  1  0.66666667  0.33333333  0.06963533  1
  O  O40  1  0.51527667  0.48472333  0.74286233  1
  O  O41  1  0.96944667  0.48472333  0.74286233  1
