# generated using pymatgen
data_Li4Mn3Co5O16
_symmetry_space_group_name_H-M   'P 1'
_cell_length_a   9.84570600
_cell_length_b   5.72347400
_cell_length_c   9.23104555
_cell_angle_alpha   90.00000000
_cell_angle_beta   90.18390949
_cell_angle_gamma   90.00000000
_symmetry_Int_Tables_number   1
_chemical_formula_structural   Li4Mn3Co5O16
_chemical_formula_sum   'Li8 Mn6 Co10 O32'
_cell_volume   520.18189739
_cell_formula_units_Z   2
loop_
 _symmetry_equiv_pos_site_id
 _symmetry_equiv_pos_as_xyz
  1  'x, y, z'
loop_
 _atom_site_type_symbol
 _atom_site_label
 _atom_site_symmetry_multiplicity
 _atom_site_fract_x
 _atom_site_fract_y
 _atom_site_fract_z
 _atom_site_occupancy
  Li  Li0  1  0.33033300  0.00000000  0.89774200  1
  Li  Li1  1  0.99382200  0.00000000  0.99922000  1
  Li  Li2  1  0.99127300  0.00000000  0.49520300  1
  Li  Li3  1  0.66768000  0.00000000  0.39462700  1
  Li  Li4  1  0.83033300  0.50000000  0.89774200  1
  Li  Li5  1  0.49382200  0.50000000  0.99922000  1
  Li  Li6  1  0.49127300  0.50000000  0.49520300  1
  Li  Li7  1  0.16768000  0.50000000  0.39462700  1
  Mn  Mn8  1  0.16971200  0.00000000  0.21328700  1
  Mn  Mn9  1  0.58174750  0.75518350  0.71356400  1
  Mn  Mn10  1  0.58174750  0.24481650  0.71356400  1
  Mn  Mn11  1  0.66971200  0.50000000  0.21328700  1
  Mn  Mn12  1  0.08174750  0.25518350  0.71356400  1
  Mn  Mn13  1  0.08174750  0.74481650  0.71356400  1
  Co  Co14  1  0.41501550  0.75376450  0.20957500  1
  Co  Co15  1  0.33458800  0.00000000  0.48104600  1
  Co  Co16  1  0.41501550  0.24623550  0.20957500  1
  Co  Co17  1  0.82644200  0.00000000  0.71417500  1
  Co  Co18  1  0.66548500  0.00000000  0.98370200  1
  Co  Co19  1  0.91501550  0.25376450  0.20957500  1
  Co  Co20  1  0.83458800  0.50000000  0.48104600  1
  Co  Co21  1  0.91501550  0.74623550  0.20957500  1
  Co  Co22  1  0.32644200  0.50000000  0.71417500  1
  Co  Co23  1  0.16548500  0.50000000  0.98370200  1
  O  O24  1  0.41587750  0.74984150  0.59998000  1
  O  O25  1  0.47903700  0.00000000  0.33638500  1
  O  O26  1  0.33362700  0.00000000  0.10654900  1
  O  O27  1  0.99910800  0.00000000  0.30744000  1
  O  O28  1  0.99649500  0.00000000  0.81076300  1
  O  O29  1  0.41587750  0.25015850  0.59998000  1
  O  O30  1  0.26254300  0.78113600  0.33964700  1
  O  O31  1  0.26254300  0.21886400  0.33964700  1
  O  O32  1  0.83261400  0.00000000  0.10562500  1
  O  O33  1  0.16195600  0.00000000  0.59921800  1
  O  O34  1  0.73793100  0.78293800  0.84270300  1
  O  O35  1  0.73793100  0.21706200  0.84270300  1
  O  O36  1  0.66248000  0.00000000  0.60608000  1
  O  O37  1  0.57962150  0.75129450  0.10127600  1
  O  O38  1  0.51758700  0.00000000  0.84251400  1
  O  O39  1  0.57962150  0.24870550  0.10127600  1
  O  O40  1  0.91587750  0.24984150  0.59998000  1
  O  O41  1  0.97903700  0.50000000  0.33638500  1
  O  O42  1  0.83362700  0.50000000  0.10654900  1
  O  O43  1  0.49910800  0.50000000  0.30744000  1
  O  O44  1  0.49649500  0.50000000  0.81076300  1
  O  O45  1  0.91587750  0.75015850  0.59998000  1
  O  O46  1  0.76254300  0.28113600  0.33964700  1
  O  O47  1  0.76254300  0.71886400  0.33964700  1
  O  O48  1  0.33261400  0.50000000  0.10562500  1
  O  O49  1  0.66195600  0.50000000  0.59921800  1
  O  O50  1  0.23793100  0.28293800  0.84270300  1
  O  O51  1  0.23793100  0.71706200  0.84270300  1
  O  O52  1  0.16248000  0.50000000  0.60608000  1
  O  O53  1  0.07962150  0.25129450  0.10127600  1
  O  O54  1  0.01758700  0.50000000  0.84251400  1
  O  O55  1  0.07962150  0.74870550  0.10127600  1
