# generated using pymatgen
data_VNi5(PO4)6
_symmetry_space_group_name_H-M   'P 1'
_cell_length_a   8.60512236
_cell_length_b   8.60512236
_cell_length_c   20.53865646
_cell_angle_alpha   90.00000000
_cell_angle_beta   90.00000000
_cell_angle_gamma   120.00000000
_symmetry_Int_Tables_number   1
_chemical_formula_structural   VNi5(PO4)6
_chemical_formula_sum   'V3 Ni15 P18 O72'
_cell_volume   1317.09397355
_cell_formula_units_Z   3
loop_
 _symmetry_equiv_pos_site_id
 _symmetry_equiv_pos_as_xyz
  1  'x, y, z'
loop_
 _atom_site_type_symbol
 _atom_site_label
 _atom_site_symmetry_multiplicity
 _atom_site_fract_x
 _atom_site_fract_y
 _atom_site_fract_z
 _atom_site_occupancy
  V  V0  1  0.33333333  0.66666667  0.52120167  1
  V  V1  1  0.00000000  0.00000000  0.85453500  1
  V  V2  1  0.66666667  0.33333333  0.18786833  1
  Ni  Ni3  1  0.33333333  0.66666667  0.66838767  1
  Ni  Ni4  1  0.33333333  0.66666667  0.02597967  1
  Ni  Ni5  1  0.33333333  0.66666667  0.16763567  1
  Ni  Ni6  1  0.33333333  0.66666667  0.80984667  1
  Ni  Ni7  1  0.33333333  0.66666667  0.30828367  1
  Ni  Ni8  1  0.00000000  0.00000000  0.00172100  1
  Ni  Ni9  1  0.00000000  0.00000000  0.35931300  1
  Ni  Ni10  1  0.00000000  0.00000000  0.50096900  1
  Ni  Ni11  1  0.00000000  0.00000000  0.14318000  1
  Ni  Ni12  1  0.00000000  0.00000000  0.64161700  1
  Ni  Ni13  1  0.66666667  0.33333333  0.33505433  1
  Ni  Ni14  1  0.66666667  0.33333333  0.69264633  1
  Ni  Ni15  1  0.66666667  0.33333333  0.83430233  1
  Ni  Ni16  1  0.66666667  0.33333333  0.47651333  1
  Ni  Ni17  1  0.66666667  0.33333333  0.97495033  1
  P  P18  1  0.96321700  0.33358700  0.08248800  1
  P  P19  1  0.37037000  0.03678300  0.08248800  1
  P  P20  1  0.66641300  0.62963000  0.08248800  1
  P  P21  1  0.99978567  0.70261033  0.25005133  1
  P  P22  1  0.29738967  0.29717533  0.25005133  1
  P  P23  1  0.70282467  0.00021433  0.25005133  1
  P  P24  1  0.62988367  0.66692033  0.41582133  1
  P  P25  1  0.03703667  0.37011633  0.41582133  1
  P  P26  1  0.33307967  0.96296333  0.41582133  1
  P  P27  1  0.66645233  0.03594367  0.58338467  1
  P  P28  1  0.96405633  0.63050867  0.58338467  1
  P  P29  1  0.36949133  0.33354767  0.58338467  1
  P  P30  1  0.29655033  0.00025367  0.74915467  1
  P  P31  1  0.70370333  0.70344967  0.74915467  1
  P  P32  1  0.99974633  0.29629667  0.74915467  1
  P  P33  1  0.33311900  0.36927700  0.91671800  1
  P  P34  1  0.63072300  0.96384200  0.91671800  1
  P  P35  1  0.03615800  0.66688100  0.91671800  1
  O  O36  1  0.13994300  0.46154700  0.35488300  1
  O  O37  1  0.32160400  0.86005700  0.35488300  1
  O  O38  1  0.53845300  0.67839600  0.35488300  1
  O  O39  1  0.97995300  0.16380200  0.07527000  1
  O  O40  1  0.50634733  0.65129967  0.47636367  1
  O  O41  1  0.14492967  0.50034833  0.09782733  1
  O  O42  1  0.18384900  0.02004700  0.07527000  1
  O  O43  1  0.35541867  0.85507033  0.09782733  1
  O  O44  1  0.99623467  0.79721033  0.18812233  1
  O  O45  1  0.49965167  0.64458133  0.09782733  1
  O  O46  1  0.82894133  0.50552567  0.25487767  1
  O  O47  1  0.20278967  0.19902433  0.18812233  1
  O  O48  1  0.14495233  0.49365267  0.47636367  1
  O  O49  1  0.83619800  0.81615100  0.07527000  1
  O  O50  1  0.16423100  0.67622500  0.24068100  1
  O  O51  1  0.34870033  0.85504767  0.47636367  1
  O  O52  1  0.32377500  0.48800600  0.24068100  1
  O  O53  1  0.49447433  0.32341567  0.25487767  1
  O  O54  1  0.51199400  0.83576900  0.24068100  1
  O  O55  1  0.80097567  0.00376533  0.18812233  1
  O  O56  1  0.67658433  0.17105867  0.25487767  1
  O  O57  1  0.13009667  0.66896133  0.97898733  1
  O  O58  1  0.33103867  0.46113533  0.97898733  1
  O  O59  1  0.53886467  0.86990333  0.97898733  1
  O  O60  1  0.80660967  0.79488033  0.68821633  1
  O  O61  1  0.98827067  0.19339033  0.68821633  1
  O  O62  1  0.20511967  0.01172933  0.68821633  1
  O  O63  1  0.64661967  0.49713533  0.40860333  1
  O  O64  1  0.17301400  0.98463300  0.80969700  1
  O  O65  1  0.81159633  0.83368167  0.43116067  1
  O  O66  1  0.85051567  0.35338033  0.40860333  1
  O  O67  1  0.02208533  0.18840367  0.43116067  1
  O  O68  1  0.66290133  0.13054367  0.52145567  1
  O  O69  1  0.16631833  0.97791467  0.43116067  1
  O  O70  1  0.49560800  0.83885900  0.58821100  1
  O  O71  1  0.86945633  0.53235767  0.52145567  1
  O  O72  1  0.81161900  0.82698600  0.80969700  1
  O  O73  1  0.50286467  0.14948433  0.40860333  1
  O  O74  1  0.83089767  0.00955833  0.57401433  1
  O  O75  1  0.01536700  0.18838100  0.80969700  1
  O  O76  1  0.99044167  0.82133933  0.57401433  1
  O  O77  1  0.16114100  0.65674900  0.58821100  1
  O  O78  1  0.17866067  0.16910233  0.57401433  1
  O  O79  1  0.46764233  0.33709867  0.52145567  1
  O  O80  1  0.34325100  0.50439200  0.58821100  1
  O  O81  1  0.79676333  0.00229467  0.31232067  1
  O  O82  1  0.99770533  0.79446867  0.31232067  1
  O  O83  1  0.20553133  0.20323667  0.31232067  1
  O  O84  1  0.47327633  0.12821367  0.02154967  1
  O  O85  1  0.65493733  0.52672367  0.02154967  1
  O  O86  1  0.87178633  0.34506267  0.02154967  1
  O  O87  1  0.31328633  0.83046867  0.74193667  1
  O  O88  1  0.83968067  0.31796633  0.14303033  1
  O  O89  1  0.47826300  0.16701500  0.76449400  1
  O  O90  1  0.51718233  0.68671367  0.74193667  1
  O  O91  1  0.68875200  0.52173700  0.76449400  1
  O  O92  1  0.32956800  0.46387700  0.85478900  1
  O  O93  1  0.83298500  0.31124800  0.76449400  1
  O  O94  1  0.16227467  0.17219233  0.92154433  1
  O  O95  1  0.53612300  0.86569100  0.85478900  1
  O  O96  1  0.47828567  0.16031933  0.14303033  1
  O  O97  1  0.16953133  0.48281767  0.74193667  1
  O  O98  1  0.49756433  0.34289167  0.90734767  1
  O  O99  1  0.68203367  0.52171433  0.14303033  1
  O  O100  1  0.65710833  0.15467267  0.90734767  1
  O  O101  1  0.82780767  0.99008233  0.92154433  1
  O  O102  1  0.84532733  0.50243567  0.90734767  1
  O  O103  1  0.13430900  0.67043200  0.85478900  1
  O  O104  1  0.00991767  0.83772533  0.92154433  1
  O  O105  1  0.46343000  0.33562800  0.64565400  1
  O  O106  1  0.66437200  0.12780200  0.64565400  1
  O  O107  1  0.87219800  0.53657000  0.64565400  1
