# generated using pymatgen
data_Mn3CuO8
_symmetry_space_group_name_H-M   'P 1'
_cell_length_a   5.83144408
_cell_length_b   5.83144408
_cell_length_c   14.36776015
_cell_angle_alpha   90.00000000
_cell_angle_beta   90.00000000
_cell_angle_gamma   120.00000000
_symmetry_Int_Tables_number   1
_chemical_formula_structural   Mn3CuO8
_chemical_formula_sum   'Mn9 Cu3 O24'
_cell_volume   423.12816198
_cell_formula_units_Z   3
loop_
 _symmetry_equiv_pos_site_id
 _symmetry_equiv_pos_as_xyz
  1  'x, y, z'
loop_
 _atom_site_type_symbol
 _atom_site_label
 _atom_site_symmetry_multiplicity
 _atom_site_fract_x
 _atom_site_fract_y
 _atom_site_fract_z
 _atom_site_occupancy
  Mn  Mn0  1  0.00000000  0.50000000  0.00000000  1
  Mn  Mn1  1  0.50000000  0.00000000  0.00000000  1
  Mn  Mn2  1  0.50000000  0.50000000  0.00000000  1
  Mn  Mn3  1  0.66666667  0.83333333  0.33333333  1
  Mn  Mn4  1  0.16666667  0.33333333  0.33333333  1
  Mn  Mn5  1  0.16666667  0.83333333  0.33333333  1
  Mn  Mn6  1  0.33333333  0.16666667  0.66666667  1
  Mn  Mn7  1  0.83333333  0.66666667  0.66666667  1
  Mn  Mn8  1  0.83333333  0.16666667  0.66666667  1
  Cu  Cu9  1  0.33333333  0.66666667  0.16666667  1
  Cu  Cu10  1  1.00000000  1.00000000  0.50000000  1
  Cu  Cu11  1  0.66666667  0.33333333  0.83333333  1
  O  O12  1  0.66666667  0.33333333  0.06836533  1
  O  O13  1  0.48097867  0.51902133  0.25655733  1
  O  O14  1  0.48097867  0.96195733  0.25655733  1
  O  O15  1  0.03804267  0.51902133  0.25655733  1
  O  O16  1  0.62862400  0.81431200  0.07677600  1
  O  O17  1  0.18568800  0.37137600  0.07677600  1
  O  O18  1  0.18568800  0.81431200  0.07677600  1
  O  O19  1  0.00000000  0.00000000  0.26496800  1
  O  O20  1  0.33333333  0.66666667  0.40169867  1
  O  O21  1  0.14764533  0.85235467  0.58989067  1
  O  O22  1  0.14764533  0.29529067  0.58989067  1
  O  O23  1  0.70470933  0.85235467  0.58989067  1
  O  O24  1  0.29529067  0.14764533  0.41010933  1
  O  O25  1  0.85235467  0.70470933  0.41010933  1
  O  O26  1  0.85235467  0.14764533  0.41010933  1
  O  O27  1  0.66666667  0.33333333  0.59830133  1
  O  O28  1  0.00000000  0.00000000  0.73503200  1
  O  O29  1  0.81431200  0.18568800  0.92322400  1
  O  O30  1  0.81431200  0.62862400  0.92322400  1
  O  O31  1  0.37137600  0.18568800  0.92322400  1
  O  O32  1  0.96195733  0.48097867  0.74344267  1
  O  O33  1  0.51902133  0.03804267  0.74344267  1
  O  O34  1  0.51902133  0.48097867  0.74344267  1
  O  O35  1  0.33333333  0.66666667  0.93163467  1
