# generated using pymatgen
data_Li2MnP2O7
_symmetry_space_group_name_H-M   'P 1'
_cell_length_a   6.81645035
_cell_length_b   7.25517216
_cell_length_c   13.06846776
_cell_angle_alpha   90.00000000
_cell_angle_beta   90.00000000
_cell_angle_gamma   90.00000000
_symmetry_Int_Tables_number   1
_chemical_formula_structural   Li2MnP2O7
_chemical_formula_sum   'Li8 Mn4 P8 O28'
_cell_volume   646.29480981
_cell_formula_units_Z   4
loop_
 _symmetry_equiv_pos_site_id
 _symmetry_equiv_pos_as_xyz
  1  'x, y, z'
loop_
 _atom_site_type_symbol
 _atom_site_label
 _atom_site_symmetry_multiplicity
 _atom_site_fract_x
 _atom_site_fract_y
 _atom_site_fract_z
 _atom_site_occupancy
  Li  Li0  1  0.25000000  0.25000000  0.48305200  1
  Li  Li1  1  0.75000000  0.25000000  0.51694800  1
  Li  Li2  1  0.25000000  0.75000000  0.48305200  1
  Li  Li3  1  0.75000000  0.75000000  0.51694800  1
  Li  Li4  1  0.75000000  0.75000000  0.98305200  1
  Li  Li5  1  0.25000000  0.75000000  0.01694800  1
  Li  Li6  1  0.75000000  0.25000000  0.98305200  1
  Li  Li7  1  0.25000000  0.25000000  0.01694800  1
  Mn  Mn8  1  0.25000000  0.75000000  0.25000000  1
  Mn  Mn9  1  0.75000000  0.75000000  0.75000000  1
  Mn  Mn10  1  0.75000000  0.25000000  0.75000000  1
  Mn  Mn11  1  0.25000000  0.25000000  0.25000000  1
  P  P12  1  0.07233100  0.50000000  0.63649200  1
  P  P13  1  0.42766900  0.00000000  0.63649200  1
  P  P14  1  0.57233100  0.00000000  0.36350800  1
  P  P15  1  0.92766900  0.50000000  0.36350800  1
  P  P16  1  0.57233100  0.00000000  0.13649200  1
  P  P17  1  0.92766900  0.50000000  0.13649200  1
  P  P18  1  0.07233100  0.50000000  0.86350800  1
  P  P19  1  0.42766900  0.00000000  0.86350800  1
  O  O20  1  0.67749800  0.00000000  0.25000000  1
  O  O21  1  0.82250200  0.50000000  0.25000000  1
  O  O22  1  0.27046450  0.00000000  0.55730150  1
  O  O23  1  0.22953550  0.50000000  0.55730150  1
  O  O24  1  0.77046450  0.50000000  0.44269850  1
  O  O25  1  0.72953550  0.00000000  0.44269850  1
  O  O26  1  0.44117050  0.17149600  0.36461650  1
  O  O27  1  0.05882950  0.32850400  0.36461650  1
  O  O28  1  0.94117050  0.32850400  0.63538350  1
  O  O29  1  0.55882950  0.17149600  0.63538350  1
  O  O30  1  0.44117050  0.82850400  0.36461650  1
  O  O31  1  0.05882950  0.67149600  0.36461650  1
  O  O32  1  0.55882950  0.82850400  0.63538350  1
  O  O33  1  0.94117050  0.67149600  0.63538350  1
  O  O34  1  0.17749800  0.50000000  0.75000000  1
  O  O35  1  0.32250200  0.00000000  0.75000000  1
  O  O36  1  0.77046450  0.50000000  0.05730150  1
  O  O37  1  0.72953550  0.00000000  0.05730150  1
  O  O38  1  0.27046450  0.00000000  0.94269850  1
  O  O39  1  0.22953550  0.50000000  0.94269850  1
  O  O40  1  0.94117050  0.67149600  0.86461650  1
  O  O41  1  0.55882950  0.82850400  0.86461650  1
  O  O42  1  0.44117050  0.82850400  0.13538350  1
  O  O43  1  0.05882950  0.67149600  0.13538350  1
  O  O44  1  0.94117050  0.32850400  0.86461650  1
  O  O45  1  0.55882950  0.17149600  0.86461650  1
  O  O46  1  0.05882950  0.32850400  0.13538350  1
  O  O47  1  0.44117050  0.17149600  0.13538350  1
