# generated using pymatgen
data_Li2CoGeO4
_symmetry_space_group_name_H-M   'P 1'
_cell_length_a   5.10085450
_cell_length_b   5.56123550
_cell_length_c   6.34515800
_cell_angle_alpha   90.00000000
_cell_angle_beta   90.00000000
_cell_angle_gamma   90.00000000
_symmetry_Int_Tables_number   1
_chemical_formula_structural   Li2CoGeO4
_chemical_formula_sum   'Li4 Co2 Ge2 O8'
_cell_volume   179.99343408
_cell_formula_units_Z   2
loop_
 _symmetry_equiv_pos_site_id
 _symmetry_equiv_pos_as_xyz
  1  'x, y, z'
loop_
 _atom_site_type_symbol
 _atom_site_label
 _atom_site_symmetry_multiplicity
 _atom_site_fract_x
 _atom_site_fract_y
 _atom_site_fract_z
 _atom_site_occupancy
  Li  Li0  1  0.00526600  0.16609075  0.25075375  1
  Li  Li1  1  0.50526600  0.83390925  0.24924625  1
  Li  Li2  1  0.00526600  0.16609075  0.74924625  1
  Li  Li3  1  0.50526600  0.83390925  0.75075375  1
  Co  Co4  1  0.00404400  0.66545875  0.00000000  1
  Co  Co5  1  0.50404400  0.33454125  0.50000000  1
  Ge  Ge6  1  0.49950050  0.33121375  0.00000000  1
  Ge  Ge7  1  0.99950050  0.66878625  0.50000000  1
  O  O8  1  0.14964550  0.33200725  0.00000000  1
  O  O9  1  0.64964550  0.66799275  0.50000000  1
  O  O10  1  0.61086850  0.63601375  0.00000000  1
  O  O11  1  0.11086850  0.36398625  0.50000000  1
  O  O12  1  0.11270700  0.82315525  0.27039625  1
  O  O13  1  0.61270700  0.17684475  0.22960375  1
  O  O14  1  0.61270700  0.17684475  0.77039625  1
  O  O15  1  0.11270700  0.82315525  0.72960375  1
