# generated using pymatgen
data_Ti5V(PO4)6
_symmetry_space_group_name_H-M   'P 1'
_cell_length_a   8.75578744
_cell_length_b   8.75578744
_cell_length_c   20.31228031
_cell_angle_alpha   90.00000000
_cell_angle_beta   90.00000000
_cell_angle_gamma   120.00000000
_symmetry_Int_Tables_number   1
_chemical_formula_structural   Ti5V(PO4)6
_chemical_formula_sum   'Ti15 V3 P18 O72'
_cell_volume   1348.58937120
_cell_formula_units_Z   3
loop_
 _symmetry_equiv_pos_site_id
 _symmetry_equiv_pos_as_xyz
  1  'x, y, z'
loop_
 _atom_site_type_symbol
 _atom_site_label
 _atom_site_symmetry_multiplicity
 _atom_site_fract_x
 _atom_site_fract_y
 _atom_site_fract_z
 _atom_site_occupancy
  Ti  Ti0  1  0.00000000  0.00000000  0.99969533  1
  Ti  Ti1  1  0.00000000  0.00000000  0.63950000  1
  Ti  Ti2  1  0.00000000  0.00000000  0.50128267  1
  Ti  Ti3  1  0.00000000  0.00000000  0.85816867  1
  Ti  Ti4  1  0.00000000  0.00000000  0.36034067  1
  Ti  Ti5  1  0.66666667  0.33333333  0.33302867  1
  Ti  Ti6  1  0.66666667  0.33333333  0.97283333  1
  Ti  Ti7  1  0.66666667  0.33333333  0.83461600  1
  Ti  Ti8  1  0.66666667  0.33333333  0.19150200  1
  Ti  Ti9  1  0.66666667  0.33333333  0.69367400  1
  Ti  Ti10  1  0.33333333  0.66666667  0.66636200  1
  Ti  Ti11  1  0.33333333  0.66666667  0.30616667  1
  Ti  Ti12  1  0.33333333  0.66666667  0.16794933  1
  Ti  Ti13  1  0.33333333  0.66666667  0.52483533  1
  Ti  Ti14  1  0.33333333  0.66666667  0.02700733  1
  V  V15  1  0.00000000  0.00000000  0.13972300  1
  V  V16  1  0.66666667  0.33333333  0.47305633  1
  V  V17  1  0.33333333  0.66666667  0.80638967  1
  P  P18  1  0.66559033  0.04208667  0.58334167  1
  P  P19  1  0.37649633  0.33440967  0.58334167  1
  P  P20  1  0.95791333  0.62350367  0.58334167  1
  P  P21  1  0.04084433  0.37554367  0.41626967  1
  P  P22  1  0.62445633  0.66530067  0.41626967  1
  P  P23  1  0.33469933  0.95915567  0.41626967  1
  P  P24  1  0.33225700  0.37542000  0.91667500  1
  P  P25  1  0.04316300  0.66774300  0.91667500  1
  P  P26  1  0.62458000  0.95683700  0.91667500  1
  P  P27  1  0.70751100  0.70887700  0.74960300  1
  P  P28  1  0.29112300  0.99863400  0.74960300  1
  P  P29  1  0.00136600  0.29248900  0.74960300  1
  P  P30  1  0.99892367  0.70875333  0.25000833  1
  P  P31  1  0.70982967  0.00107633  0.25000833  1
  P  P32  1  0.29124667  0.29017033  0.25000833  1
  P  P33  1  0.37417767  0.04221033  0.08293633  1
  P  P34  1  0.95778967  0.33196733  0.08293633  1
  P  P35  1  0.66803267  0.62582233  0.08293633  1
  O  O36  1  0.80333133  0.99122167  0.31247467  1
  O  O37  1  0.18789033  0.19666867  0.31247467  1
  O  O38  1  0.00877833  0.81210967  0.31247467  1
  O  O39  1  0.50105500  0.85169700  0.59395700  1
  O  O40  1  0.65818133  0.13050767  0.52139467  1
  O  O41  1  0.82971233  0.01384967  0.57460967  1
  O  O42  1  0.35064200  0.49894500  0.59395700  1
  O  O43  1  0.18413733  0.17028767  0.57460967  1
  O  O44  1  0.80166967  0.81315833  0.81171133  1
  O  O45  1  0.98615033  0.81586267  0.57460967  1
  O  O46  1  0.85426500  0.35028200  0.40420700  1
  O  O47  1  0.18684167  0.98851133  0.81171133  1
  O  O48  1  0.47232633  0.34181867  0.52139467  1
  O  O49  1  0.14830300  0.64935800  0.59395700  1
  O  O50  1  0.01801633  0.18708667  0.42758067  1
  O  O51  1  0.86949233  0.52767367  0.52139467  1
  O  O52  1  0.81291333  0.83092967  0.42758067  1
  O  O53  1  0.64971800  0.50398300  0.40420700  1
  O  O54  1  0.16907033  0.98198367  0.42758067  1
  O  O55  1  0.01148867  0.19833033  0.81171133  1
  O  O56  1  0.49601700  0.14573500  0.40420700  1
  O  O57  1  0.98752933  0.18486467  0.68821267  1
  O  O58  1  0.81513533  0.80266467  0.68821267  1
  O  O59  1  0.19733533  0.01247067  0.68821267  1
  O  O60  1  0.46999800  0.32455500  0.64580800  1
  O  O61  1  0.85455700  0.53000200  0.64580800  1
  O  O62  1  0.67544500  0.14544300  0.64580800  1
  O  O63  1  0.16772167  0.18503033  0.92729033  1
  O  O64  1  0.32484800  0.46384100  0.85472800  1
  O  O65  1  0.49637900  0.34718300  0.90794300  1
  O  O66  1  0.01730867  0.83227833  0.92729033  1
  O  O67  1  0.85080400  0.50362100  0.90794300  1
  O  O68  1  0.46833633  0.14649167  0.14504467  1
  O  O69  1  0.65281700  0.14919600  0.90794300  1
  O  O70  1  0.52093167  0.68361533  0.73754033  1
  O  O71  1  0.85350833  0.32184467  0.14504467  1
  O  O72  1  0.13899300  0.67515200  0.85472800  1
  O  O73  1  0.81496967  0.98269133  0.92729033  1
  O  O74  1  0.68468300  0.52042000  0.76091400  1
  O  O75  1  0.53615900  0.86100700  0.85472800  1
  O  O76  1  0.47958000  0.16426300  0.76091400  1
  O  O77  1  0.31638467  0.83731633  0.73754033  1
  O  O78  1  0.83573700  0.31531700  0.76091400  1
  O  O79  1  0.67815533  0.53166367  0.14504467  1
  O  O80  1  0.16268367  0.47906833  0.73754033  1
  O  O81  1  0.65419600  0.51819800  0.02154600  1
  O  O82  1  0.48180200  0.13599800  0.02154600  1
  O  O83  1  0.86400200  0.34580400  0.02154600  1
  O  O84  1  0.13666467  0.65788833  0.97914133  1
  O  O85  1  0.52122367  0.86333533  0.97914133  1
  O  O86  1  0.34211167  0.47877633  0.97914133  1
  O  O87  1  0.83438833  0.51836367  0.26062367  1
  O  O88  1  0.99151467  0.79717433  0.18806133  1
  O  O89  1  0.16304567  0.68051633  0.24127633  1
  O  O90  1  0.68397533  0.16561167  0.26062367  1
  O  O91  1  0.51747067  0.83695433  0.24127633  1
  O  O92  1  0.13500300  0.47982500  0.47837800  1
  O  O93  1  0.31948367  0.48252933  0.24127633  1
  O  O94  1  0.18759833  0.01694867  0.07087367  1
  O  O95  1  0.52017500  0.65517800  0.47837800  1
  O  O96  1  0.80565967  0.00848533  0.18806133  1
  O  O97  1  0.48163633  0.31602467  0.26062367  1
  O  O98  1  0.35134967  0.85375333  0.09424733  1
  O  O99  1  0.20282567  0.19434033  0.18806133  1
  O  O100  1  0.14624667  0.49759633  0.09424733  1
  O  O101  1  0.98305133  0.17064967  0.07087367  1
  O  O102  1  0.50240367  0.64865033  0.09424733  1
  O  O103  1  0.34482200  0.86499700  0.47837800  1
  O  O104  1  0.82935033  0.81240167  0.07087367  1
  O  O105  1  0.32086267  0.85153133  0.35487933  1
  O  O106  1  0.14846867  0.46933133  0.35487933  1
  O  O107  1  0.53066867  0.67913733  0.35487933  1
