# generated using pymatgen
data_Li2CoCu(PO4)2
_symmetry_space_group_name_H-M   'P 1'
_cell_length_a   4.75200917
_cell_length_b   6.10195180
_cell_length_c   10.03050722
_cell_angle_alpha   90.00000000
_cell_angle_beta   91.68318498
_cell_angle_gamma   90.00000000
_symmetry_Int_Tables_number   1
_chemical_formula_structural   Li2CoCu(PO4)2
_chemical_formula_sum   'Li4 Co2 Cu2 P4 O16'
_cell_volume   290.72441777
_cell_formula_units_Z   2
loop_
 _symmetry_equiv_pos_site_id
 _symmetry_equiv_pos_as_xyz
  1  'x, y, z'
loop_
 _atom_site_type_symbol
 _atom_site_label
 _atom_site_symmetry_multiplicity
 _atom_site_fract_x
 _atom_site_fract_y
 _atom_site_fract_z
 _atom_site_occupancy
  Li  Li0  1  0.50000000  0.00000000  0.00000000  1
  Li  Li1  1  0.50000000  0.50000000  0.00000000  1
  Li  Li2  1  0.00000000  0.00000000  0.50000000  1
  Li  Li3  1  0.00000000  0.50000000  0.50000000  1
  Co  Co4  1  0.02449500  0.25000000  0.78140850  1
  Co  Co5  1  0.97550500  0.75000000  0.21859150  1
  Cu  Cu6  1  0.44306300  0.25000000  0.28454450  1
  Cu  Cu7  1  0.55693700  0.75000000  0.71545550  1
  P  P8  1  0.91515200  0.25000000  0.09666950  1
  P  P9  1  0.08484800  0.75000000  0.90333050  1
  P  P10  1  0.42412100  0.75000000  0.40732850  1
  P  P11  1  0.57587900  0.25000000  0.59267150  1
  O  O12  1  0.19958900  0.75000000  0.04695650  1
  O  O13  1  0.80041100  0.25000000  0.95304350  1
  O  O14  1  0.24318900  0.25000000  0.10534750  1
  O  O15  1  0.75681100  0.75000000  0.89465250  1
  O  O16  1  0.74671000  0.75000000  0.40470050  1
  O  O17  1  0.25329000  0.25000000  0.59529950  1
  O  O18  1  0.67616200  0.25000000  0.44988650  1
  O  O19  1  0.32383800  0.75000000  0.55011350  1
  O  O20  1  0.78520000  0.04273300  0.16396550  1
  O  O21  1  0.78520000  0.45726700  0.16396550  1
  O  O22  1  0.21480000  0.54273300  0.83603450  1
  O  O23  1  0.21480000  0.95726700  0.83603450  1
  O  O24  1  0.27637900  0.55011600  0.33770750  1
  O  O25  1  0.27637900  0.94988400  0.33770750  1
  O  O26  1  0.72362100  0.05011600  0.66229250  1
  O  O27  1  0.72362100  0.44988400  0.66229250  1
