# generated using pymatgen
data_Fe2O3F
_symmetry_space_group_name_H-M   'P 1'
_cell_length_a   4.67041034
_cell_length_b   7.61729420
_cell_length_c   9.81332602
_cell_angle_alpha   70.35113407
_cell_angle_beta   87.33140742
_cell_angle_gamma   88.59836857
_symmetry_Int_Tables_number   1
_chemical_formula_structural   Fe2O3F
_chemical_formula_sum   'Fe10 O15 F5'
_cell_volume   328.41808508
_cell_formula_units_Z   5
loop_
 _symmetry_equiv_pos_site_id
 _symmetry_equiv_pos_as_xyz
  1  'x, y, z'
loop_
 _atom_site_type_symbol
 _atom_site_label
 _atom_site_symmetry_multiplicity
 _atom_site_fract_x
 _atom_site_fract_y
 _atom_site_fract_z
 _atom_site_occupancy
  Fe  Fe0  1  0.48376600  0.71113100  0.90105200  1
  Fe  Fe1  1  0.52885600  0.90133800  0.31414800  1
  Fe  Fe2  1  0.53052200  0.10742300  0.70759000  1
  Fe  Fe3  1  0.45879600  0.28749500  0.10037300  1
  Fe  Fe4  1  0.47411200  0.49603300  0.48173600  1
  Fe  Fe5  1  0.03578600  0.39520500  0.80085700  1
  Fe  Fe6  1  0.00759400  0.79617000  0.60435500  1
  Fe  Fe7  1  0.99743900  0.19441900  0.39896700  1
  Fe  Fe8  1  0.99357000  0.60276700  0.19261900  1
  Fe  Fe9  1  0.97793600  0.00665000  0.99657500  1
  O  O10  1  0.18922300  0.23784500  0.97799600  1
  O  O11  1  0.17490200  0.43740900  0.36640500  1
  O  O12  1  0.19714700  0.63432900  0.77904900  1
  O  O13  1  0.30550300  0.95234600  0.87685600  1
  O  O14  1  0.31690600  0.33988300  0.66894300  1
  O  O15  1  0.29896500  0.54126200  0.07606100  1
  O  O16  1  0.30096000  0.13424900  0.28799200  1
  O  O17  1  0.30812900  0.72985000  0.47983900  1
  O  O18  1  0.69869200  0.86598100  0.72618200  1
  O  O19  1  0.69306500  0.26290800  0.51707300  1
  O  O20  1  0.69613000  0.65589400  0.32029800  1
  O  O21  1  0.69556600  0.05907700  0.12627600  1
  O  O22  1  0.81898600  0.95723100  0.43427500  1
  O  O23  1  0.81428700  0.17615800  0.81898100  1
  O  O24  1  0.80926400  0.76132300  0.02281600  1
  F  F25  1  0.20352400  0.03898400  0.58365000  1
  F  F26  1  0.19625200  0.83941900  0.18063400  1
  F  F27  1  0.69438400  0.46225000  0.92008100  1
  F  F28  1  0.80785700  0.55697400  0.62482000  1
  F  F29  1  0.79188200  0.35799500  0.21350200  1
