# generated using pymatgen
data_Li2Al2FeO6
_symmetry_space_group_name_H-M   'P 1'
_cell_length_a   5.04092471
_cell_length_b   8.46950138
_cell_length_c   5.20653826
_cell_angle_alpha   90.00000000
_cell_angle_beta   109.50384915
_cell_angle_gamma   90.00000000
_symmetry_Int_Tables_number   1
_chemical_formula_structural   Li2Al2FeO6
_chemical_formula_sum   'Li4 Al4 Fe2 O12'
_cell_volume   209.53343721
_cell_formula_units_Z   2
loop_
 _symmetry_equiv_pos_site_id
 _symmetry_equiv_pos_as_xyz
  1  'x, y, z'
loop_
 _atom_site_type_symbol
 _atom_site_label
 _atom_site_symmetry_multiplicity
 _atom_site_fract_x
 _atom_site_fract_y
 _atom_site_fract_z
 _atom_site_occupancy
  Li  Li0  1  0.50000000  0.00023100  0.50000000  1
  Li  Li1  1  0.50000000  0.64577663  0.50000000  1
  Li  Li2  1  0.00000000  0.50023100  0.50000000  1
  Li  Li3  1  0.00000000  0.14577663  0.50000000  1
  Al  Al4  1  0.50000000  0.16812912  0.00000000  1
  Al  Al5  1  0.50000000  0.84012687  0.00000000  1
  Al  Al6  1  0.00000000  0.66812913  0.00000000  1
  Al  Al7  1  0.00000000  0.34012687  0.00000000  1
  Fe  Fe8  1  0.50000000  0.50030000  0.00000000  1
  Fe  Fe9  1  0.00000000  0.00030000  0.00000000  1
  O  O10  1  0.77302625  0.16591775  0.79238650  1
  O  O11  1  0.22697375  0.16591775  0.20761350  1
  O  O12  1  0.71866538  0.00707437  0.21674275  1
  O  O13  1  0.28133462  0.00707437  0.78325725  1
  O  O14  1  0.75919675  0.83352200  0.80244050  1
  O  O15  1  0.24080325  0.83352200  0.19755950  1
  O  O16  1  0.27302625  0.66591775  0.79238650  1
  O  O17  1  0.72697375  0.66591775  0.20761350  1
  O  O18  1  0.21866538  0.50707437  0.21674275  1
  O  O19  1  0.78133462  0.50707437  0.78325725  1
  O  O20  1  0.25919675  0.33352200  0.80244050  1
  O  O21  1  0.74080325  0.33352200  0.19755950  1
