# generated using pymatgen
data_Ni(Pt3O4)4
_symmetry_space_group_name_H-M   'P 1'
_cell_length_a   11.35078400
_cell_length_b   11.35078400
_cell_length_c   11.35078400
_cell_angle_alpha   90.00000000
_cell_angle_beta   90.00000000
_cell_angle_gamma   90.00000000
_symmetry_Int_Tables_number   1
_chemical_formula_structural   Ni(Pt3O4)4
_chemical_formula_sum   'Ni4 Pt48 O64'
_cell_volume   1462.43838645
_cell_formula_units_Z   4
loop_
 _symmetry_equiv_pos_site_id
 _symmetry_equiv_pos_as_xyz
  1  'x, y, z'
loop_
 _atom_site_type_symbol
 _atom_site_label
 _atom_site_symmetry_multiplicity
 _atom_site_fract_x
 _atom_site_fract_y
 _atom_site_fract_z
 _atom_site_occupancy
  Ni  Ni0  1  0.00000000  0.00000000  0.00000000  1
  Ni  Ni1  1  0.00000000  0.50000000  0.50000000  1
  Ni  Ni2  1  0.50000000  0.00000000  0.50000000  1
  Ni  Ni3  1  0.50000000  0.50000000  0.00000000  1
  Pt  Pt4  1  0.00000000  0.37564400  0.75140400  1
  Pt  Pt5  1  0.50000000  0.12435600  0.24859600  1
  Pt  Pt6  1  0.12435600  0.25140400  0.00000000  1
  Pt  Pt7  1  0.74859600  0.00000000  0.87564400  1
  Pt  Pt8  1  0.25140400  0.00000000  0.87564400  1
  Pt  Pt9  1  0.37564400  0.24859600  0.00000000  1
  Pt  Pt10  1  0.00000000  0.37564400  0.24859600  1
  Pt  Pt11  1  0.50000000  0.12435600  0.75140400  1
  Pt  Pt12  1  0.62435600  0.24859600  0.00000000  1
  Pt  Pt13  1  0.74859600  0.00000000  0.12435600  1
  Pt  Pt14  1  0.25140400  0.00000000  0.12435600  1
  Pt  Pt15  1  0.87564400  0.25140400  0.00000000  1
  Pt  Pt16  1  0.00000000  0.87564400  0.25140400  1
  Pt  Pt17  1  0.50000000  0.62435600  0.74859600  1
  Pt  Pt18  1  0.12435600  0.75140400  0.50000000  1
  Pt  Pt19  1  0.74859600  0.50000000  0.37564400  1
  Pt  Pt20  1  0.25140400  0.50000000  0.37564400  1
  Pt  Pt21  1  0.37564400  0.74859600  0.50000000  1
  Pt  Pt22  1  0.00000000  0.87564400  0.74859600  1
  Pt  Pt23  1  0.50000000  0.62435600  0.25140400  1
  Pt  Pt24  1  0.62435600  0.74859600  0.50000000  1
  Pt  Pt25  1  0.74859600  0.50000000  0.62435600  1
  Pt  Pt26  1  0.25140400  0.50000000  0.62435600  1
  Pt  Pt27  1  0.87564400  0.75140400  0.50000000  1
  Pt  Pt28  1  0.50000000  0.37564400  0.25140400  1
  Pt  Pt29  1  0.00000000  0.12435600  0.74859600  1
  Pt  Pt30  1  0.62435600  0.25140400  0.50000000  1
  Pt  Pt31  1  0.24859600  0.00000000  0.37564400  1
  Pt  Pt32  1  0.75140400  0.00000000  0.37564400  1
  Pt  Pt33  1  0.87564400  0.24859600  0.50000000  1
  Pt  Pt34  1  0.50000000  0.37564400  0.74859600  1
  Pt  Pt35  1  0.00000000  0.12435600  0.25140400  1
  Pt  Pt36  1  0.12435600  0.24859600  0.50000000  1
  Pt  Pt37  1  0.24859600  0.00000000  0.62435600  1
  Pt  Pt38  1  0.75140400  0.00000000  0.62435600  1
  Pt  Pt39  1  0.37564400  0.25140400  0.50000000  1
  Pt  Pt40  1  0.50000000  0.87564400  0.75140400  1
  Pt  Pt41  1  0.00000000  0.62435600  0.24859600  1
  Pt  Pt42  1  0.62435600  0.75140400  0.00000000  1
  Pt  Pt43  1  0.24859600  0.50000000  0.87564400  1
  Pt  Pt44  1  0.75140400  0.50000000  0.87564400  1
  Pt  Pt45  1  0.87564400  0.74859600  0.00000000  1
  Pt  Pt46  1  0.50000000  0.87564400  0.24859600  1
  Pt  Pt47  1  0.00000000  0.62435600  0.75140400  1
  Pt  Pt48  1  0.12435600  0.74859600  0.00000000  1
  Pt  Pt49  1  0.24859600  0.50000000  0.12435600  1
  Pt  Pt50  1  0.75140400  0.50000000  0.12435600  1
  Pt  Pt51  1  0.37564400  0.75140400  0.00000000  1
  O  O52  1  0.11365833  0.11365833  0.88634167  1
  O  O53  1  0.12801933  0.37198067  0.87198067  1
  O  O54  1  0.38634167  0.38634167  0.88634167  1
  O  O55  1  0.38634167  0.11365833  0.38634167  1
  O  O56  1  0.87198067  0.37198067  0.87198067  1
  O  O57  1  0.37198067  0.12801933  0.87198067  1
  O  O58  1  0.37198067  0.12801933  0.12801933  1
  O  O59  1  0.38634167  0.38634167  0.11365833  1
  O  O60  1  0.62801933  0.12801933  0.12801933  1
  O  O61  1  0.62801933  0.12801933  0.87198067  1
  O  O62  1  0.12801933  0.37198067  0.12801933  1
  O  O63  1  0.11365833  0.38634167  0.38634167  1
  O  O64  1  0.11365833  0.38634167  0.61365833  1
  O  O65  1  0.11365833  0.11365833  0.11365833  1
  O  O66  1  0.87198067  0.37198067  0.12801933  1
  O  O67  1  0.38634167  0.11365833  0.61365833  1
  O  O68  1  0.11365833  0.61365833  0.38634167  1
  O  O69  1  0.12801933  0.87198067  0.37198067  1
  O  O70  1  0.38634167  0.88634167  0.38634167  1
  O  O71  1  0.38634167  0.61365833  0.88634167  1
  O  O72  1  0.87198067  0.87198067  0.37198067  1
  O  O73  1  0.37198067  0.62801933  0.37198067  1
  O  O74  1  0.37198067  0.62801933  0.62801933  1
  O  O75  1  0.38634167  0.88634167  0.61365833  1
  O  O76  1  0.62801933  0.62801933  0.62801933  1
  O  O77  1  0.62801933  0.62801933  0.37198067  1
  O  O78  1  0.12801933  0.87198067  0.62801933  1
  O  O79  1  0.11365833  0.88634167  0.88634167  1
  O  O80  1  0.11365833  0.88634167  0.11365833  1
  O  O81  1  0.11365833  0.61365833  0.61365833  1
  O  O82  1  0.87198067  0.87198067  0.62801933  1
  O  O83  1  0.38634167  0.61365833  0.11365833  1
  O  O84  1  0.61365833  0.11365833  0.38634167  1
  O  O85  1  0.62801933  0.37198067  0.37198067  1
  O  O86  1  0.88634167  0.38634167  0.38634167  1
  O  O87  1  0.88634167  0.11365833  0.88634167  1
  O  O88  1  0.37198067  0.37198067  0.37198067  1
  O  O89  1  0.87198067  0.12801933  0.37198067  1
  O  O90  1  0.87198067  0.12801933  0.62801933  1
  O  O91  1  0.88634167  0.38634167  0.61365833  1
  O  O92  1  0.12801933  0.12801933  0.62801933  1
  O  O93  1  0.12801933  0.12801933  0.37198067  1
  O  O94  1  0.62801933  0.37198067  0.62801933  1
  O  O95  1  0.61365833  0.38634167  0.88634167  1
  O  O96  1  0.61365833  0.38634167  0.11365833  1
  O  O97  1  0.61365833  0.11365833  0.61365833  1
  O  O98  1  0.37198067  0.37198067  0.62801933  1
  O  O99  1  0.88634167  0.11365833  0.11365833  1
  O  O100  1  0.61365833  0.61365833  0.88634167  1
  O  O101  1  0.62801933  0.87198067  0.87198067  1
  O  O102  1  0.88634167  0.88634167  0.88634167  1
  O  O103  1  0.88634167  0.61365833  0.38634167  1
  O  O104  1  0.37198067  0.87198067  0.87198067  1
  O  O105  1  0.87198067  0.62801933  0.87198067  1
  O  O106  1  0.87198067  0.62801933  0.12801933  1
  O  O107  1  0.88634167  0.88634167  0.11365833  1
  O  O108  1  0.12801933  0.62801933  0.12801933  1
  O  O109  1  0.12801933  0.62801933  0.87198067  1
  O  O110  1  0.62801933  0.87198067  0.12801933  1
  O  O111  1  0.61365833  0.88634167  0.38634167  1
  O  O112  1  0.61365833  0.88634167  0.61365833  1
  O  O113  1  0.61365833  0.61365833  0.11365833  1
  O  O114  1  0.37198067  0.87198067  0.12801933  1
  O  O115  1  0.88634167  0.61365833  0.61365833  1
