# generated using pymatgen
data_Fe5O3F7
_symmetry_space_group_name_H-M   'P 1'
_cell_length_a   6.72620000
_cell_length_b   6.91125200
_cell_length_c   15.70924211
_cell_angle_alpha   90.00000000
_cell_angle_beta   90.02970333
_cell_angle_gamma   90.00000000
_symmetry_Int_Tables_number   1
_chemical_formula_structural   Fe5O3F7
_chemical_formula_sum   'Fe20 O12 F28'
_cell_volume   730.26700720
_cell_formula_units_Z   4
loop_
 _symmetry_equiv_pos_site_id
 _symmetry_equiv_pos_as_xyz
  1  'x, y, z'
loop_
 _atom_site_type_symbol
 _atom_site_label
 _atom_site_symmetry_multiplicity
 _atom_site_fract_x
 _atom_site_fract_y
 _atom_site_fract_z
 _atom_site_occupancy
  Fe  Fe0  1  0.98012150  0.01113750  0.80701700  1
  Fe  Fe1  1  0.97935300  0.99925100  0.60085000  1
  Fe  Fe2  1  0.02064700  0.99925100  0.39915000  1
  Fe  Fe3  1  0.01987850  0.01113750  0.19298300  1
  Fe  Fe4  1  0.50000000  0.52573600  0.00000000  1
  Fe  Fe5  1  0.52395550  0.00371950  0.69853100  1
  Fe  Fe6  1  0.47604450  0.00371950  0.30146900  1
  Fe  Fe7  1  0.50000000  0.99949900  0.50000000  1
  Fe  Fe8  1  0.49306150  0.98400850  0.10525600  1
  Fe  Fe9  1  0.50693850  0.98400850  0.89474400  1
  Fe  Fe10  1  0.48012150  0.51113750  0.80701700  1
  Fe  Fe11  1  0.47935300  0.49925100  0.60085000  1
  Fe  Fe12  1  0.52064700  0.49925100  0.39915000  1
  Fe  Fe13  1  0.51987850  0.51113750  0.19298300  1
  Fe  Fe14  1  0.00000000  0.02573600  0.00000000  1
  Fe  Fe15  1  0.02395550  0.50371950  0.69853100  1
  Fe  Fe16  1  0.97604450  0.50371950  0.30146900  1
  Fe  Fe17  1  0.00000000  0.49949900  0.50000000  1
  Fe  Fe18  1  0.99306150  0.48400850  0.10525600  1
  Fe  Fe19  1  0.00693850  0.48400850  0.89474400  1
  O  O20  1  0.49826600  0.68366100  0.09961000  1
  O  O21  1  0.50173400  0.68366100  0.90039000  1
  O  O22  1  0.32313050  0.00090750  0.40321000  1
  O  O23  1  0.30291950  0.99971950  0.20671100  1
  O  O24  1  0.69708050  0.99971950  0.79328900  1
  O  O25  1  0.67686950  0.00090750  0.59679000  1
  O  O26  1  0.99826600  0.18366100  0.09961000  1
  O  O27  1  0.00173400  0.18366100  0.90039000  1
  O  O28  1  0.82313050  0.50090750  0.40321000  1
  O  O29  1  0.80291950  0.49971950  0.20671100  1
  O  O30  1  0.19708050  0.49971950  0.79328900  1
  O  O31  1  0.17686950  0.50090750  0.59679000  1
  F  F32  1  0.49631650  0.70081450  0.70349400  1
  F  F33  1  0.50000000  0.70303600  0.50000000  1
  F  F34  1  0.50368350  0.70081450  0.29650600  1
  F  F35  1  0.29227950  0.99905050  0.78917500  1
  F  F36  1  0.29780850  0.00048750  0.60053900  1
  F  F37  1  0.30174950  0.99539850  0.99793800  1
  F  F38  1  0.70219150  0.00048750  0.39946100  1
  F  F39  1  0.70772050  0.99905050  0.21082500  1
  F  F40  1  0.69825050  0.99539850  0.00206200  1
  F  F41  1  0.49642200  0.30265400  0.70485000  1
  F  F42  1  0.50357800  0.30265400  0.29515000  1
  F  F43  1  0.50000000  0.29618300  0.50000000  1
  F  F44  1  0.49723500  0.30696400  0.90168800  1
  F  F45  1  0.50276500  0.30696400  0.09831200  1
  F  F46  1  0.99631650  0.20081450  0.70349400  1
  F  F47  1  0.00000000  0.20303600  0.50000000  1
  F  F48  1  0.00368350  0.20081450  0.29650600  1
  F  F49  1  0.79227950  0.49905050  0.78917500  1
  F  F50  1  0.79780850  0.50048750  0.60053900  1
  F  F51  1  0.80174950  0.49539850  0.99793800  1
  F  F52  1  0.20219150  0.50048750  0.39946100  1
  F  F53  1  0.20772050  0.49905050  0.21082500  1
  F  F54  1  0.19825050  0.49539850  0.00206200  1
  F  F55  1  0.99642200  0.80265400  0.70485000  1
  F  F56  1  0.00357800  0.80265400  0.29515000  1
  F  F57  1  0.00000000  0.79618300  0.50000000  1
  F  F58  1  0.99723500  0.80696400  0.90168800  1
  F  F59  1  0.00276500  0.80696400  0.09831200  1
