# generated using pymatgen
data_Li4Mn(WO4)3
_symmetry_space_group_name_H-M   'P 1'
_cell_length_a   5.04959918
_cell_length_b   8.88940472
_cell_length_c   5.15580815
_cell_angle_alpha   90.00000000
_cell_angle_beta   91.37888062
_cell_angle_gamma   90.00000000
_symmetry_Int_Tables_number   1
_chemical_formula_structural   Li4Mn(WO4)3
_chemical_formula_sum   'Li4 Mn1 W3 O12'
_cell_volume   231.36654259
_cell_formula_units_Z   1
loop_
 _symmetry_equiv_pos_site_id
 _symmetry_equiv_pos_as_xyz
  1  'x, y, z'
loop_
 _atom_site_type_symbol
 _atom_site_label
 _atom_site_symmetry_multiplicity
 _atom_site_fract_x
 _atom_site_fract_y
 _atom_site_fract_z
 _atom_site_occupancy
  Li  Li0  1  0.00000000  0.71199100  0.00000000  1
  Li  Li1  1  0.50000000  0.83443150  0.00000000  1
  Li  Li2  1  0.00000000  0.34233650  0.50000000  1
  Li  Li3  1  0.50000000  0.19499300  0.50000000  1
  Mn  Mn4  1  0.00000000  0.10364300  0.00000000  1
  W  W5  1  0.50000000  0.61345150  0.50000000  1
  W  W6  1  0.00000000  0.93236900  0.50000000  1
  W  W7  1  0.50000000  0.39981950  0.00000000  1
  O  O8  1  0.26502150  0.26811750  0.83995300  1
  O  O9  1  0.73497850  0.26811750  0.16004700  1
  O  O10  1  0.30270950  0.58066950  0.81370300  1
  O  O11  1  0.69729050  0.58066950  0.18629700  1
  O  O12  1  0.19212900  0.89928950  0.81349850  1
  O  O13  1  0.80787100  0.89928950  0.18650150  1
  O  O14  1  0.70296800  0.43395100  0.68530100  1
  O  O15  1  0.29703200  0.43395100  0.31469900  1
  O  O16  1  0.77751100  0.07341900  0.64739400  1
  O  O17  1  0.22248900  0.07341900  0.35260600  1
  O  O18  1  0.74416250  0.74937600  0.64523150  1
  O  O19  1  0.25583750  0.74937600  0.35476850  1
