# generated using pymatgen
data_Na3Mn2P2(CO7)2
_symmetry_space_group_name_H-M   'P 1'
_cell_length_a   8.97367743
_cell_length_b   6.58601500
_cell_length_c   10.38944206
_cell_angle_alpha   90.00000000
_cell_angle_beta   91.50744304
_cell_angle_gamma   90.00000000
_symmetry_Int_Tables_number   1
_chemical_formula_structural   Na3Mn2P2(CO7)2
_chemical_formula_sum   'Na6 Mn4 P4 C4 O28'
_cell_volume   613.81156463
_cell_formula_units_Z   2
loop_
 _symmetry_equiv_pos_site_id
 _symmetry_equiv_pos_as_xyz
  1  'x, y, z'
loop_
 _atom_site_type_symbol
 _atom_site_label
 _atom_site_symmetry_multiplicity
 _atom_site_fract_x
 _atom_site_fract_y
 _atom_site_fract_z
 _atom_site_occupancy
  Na  Na0  1  0.24365500  0.72429800  0.37684800  1
  Na  Na1  1  0.24365500  0.27570200  0.87684800  1
  Na  Na2  1  0.76081400  0.75916300  0.12340100  1
  Na  Na3  1  0.76001700  0.24044000  0.12084100  1
  Na  Na4  1  0.76001700  0.75956000  0.62084100  1
  Na  Na5  1  0.76081400  0.24083700  0.62340100  1
  Mn  Mn6  1  0.34400500  0.99740100  0.10615500  1
  Mn  Mn7  1  0.34400500  0.00259900  0.60615500  1
  Mn  Mn8  1  0.64979800  0.49729500  0.39106500  1
  Mn  Mn9  1  0.64979800  0.50270500  0.89106500  1
  P  P10  1  0.42400300  0.49968200  0.14373100  1
  P  P11  1  0.42400300  0.50031800  0.64373100  1
  P  P12  1  0.57190700  0.99756100  0.35728300  1
  P  P13  1  0.57190700  0.00243900  0.85728300  1
  C  C14  1  0.07579600  0.00178200  0.13461800  1
  C  C15  1  0.07579600  0.99821800  0.63461800  1
  C  C16  1  0.92274400  0.49710400  0.36572800  1
  C  C17  1  0.92274400  0.50289600  0.86572800  1
  O  O18  1  0.05842200  0.49884400  0.35472500  1
  O  O19  1  0.05842200  0.50115600  0.85472500  1
  O  O20  1  0.13981900  0.01110800  0.02278600  1
  O  O21  1  0.13981900  0.98889200  0.52278600  1
  O  O22  1  0.17430500  0.99245700  0.23015700  1
  O  O23  1  0.17430500  0.00754300  0.73015700  1
  O  O24  1  0.33082500  0.31212600  0.10466900  1
  O  O25  1  0.32761300  0.68778000  0.11404700  1
  O  O26  1  0.32761300  0.31222000  0.61404700  1
  O  O27  1  0.33082500  0.68787400  0.60466900  1
  O  O28  1  0.46488000  0.49956800  0.29134400  1
  O  O29  1  0.42455000  0.99094400  0.42951600  1
  O  O30  1  0.46488000  0.50043200  0.79134400  1
  O  O31  1  0.42455000  0.00905600  0.92951600  1
  O  O32  1  0.57509300  0.50264300  0.07218800  1
  O  O33  1  0.53723400  0.99867500  0.20808000  1
  O  O34  1  0.57509300  0.49735700  0.57218800  1
  O  O35  1  0.53723400  0.00132500  0.70808000  1
  O  O36  1  0.67198800  0.81169300  0.39078500  1
  O  O37  1  0.66869200  0.18452200  0.39346500  1
  O  O38  1  0.66869200  0.81547800  0.89346500  1
  O  O39  1  0.67198800  0.18830700  0.89078500  1
  O  O40  1  0.82403600  0.49585300  0.26783000  1
  O  O41  1  0.82403600  0.50414700  0.76783000  1
  O  O42  1  0.85269600  0.49724000  0.47672800  1
  O  O43  1  0.85269600  0.50276000  0.97672800  1
  O  O44  1  0.93796700  0.00071800  0.14830200  1
  O  O45  1  0.93796700  0.99928200  0.64830200  1
