# generated using pymatgen
data_Li4CrNi3(PO4)4
_symmetry_space_group_name_H-M   'P 1'
_cell_length_a   4.74221200
_cell_length_b   6.03890100
_cell_length_c   10.16160060
_cell_angle_alpha   90.00000000
_cell_angle_beta   90.49263269
_cell_angle_gamma   90.00000000
_symmetry_Int_Tables_number   1
_chemical_formula_structural   Li4CrNi3(PO4)4
_chemical_formula_sum   'Li4 Cr1 Ni3 P4 O16'
_cell_volume   290.99460894
_cell_formula_units_Z   1
loop_
 _symmetry_equiv_pos_site_id
 _symmetry_equiv_pos_as_xyz
  1  'x, y, z'
loop_
 _atom_site_type_symbol
 _atom_site_label
 _atom_site_symmetry_multiplicity
 _atom_site_fract_x
 _atom_site_fract_y
 _atom_site_fract_z
 _atom_site_occupancy
  Li  Li0  1  0.00604600  0.75225900  0.99783700  1
  Li  Li1  1  0.00604600  0.24774100  0.99783700  1
  Li  Li2  1  0.49833800  0.24616100  0.50223900  1
  Li  Li3  1  0.49833800  0.75383900  0.50223900  1
  Cr  Cr4  1  0.95840200  0.50000000  0.28105200  1
  Ni  Ni5  1  0.01868400  0.00000000  0.72410600  1
  Ni  Ni6  1  0.48065200  0.00000000  0.22303400  1
  Ni  Ni7  1  0.52014000  0.50000000  0.77651700  1
  P  P8  1  0.08208500  0.50000000  0.59507700  1
  P  P9  1  0.41767600  0.50000000  0.09358700  1
  P  P10  1  0.58533200  0.00000000  0.90587500  1
  P  P11  1  0.91568100  0.00000000  0.40721000  1
  O  O12  1  0.19789300  0.50000000  0.45228700  1
  O  O13  1  0.22220100  0.70519000  0.66520700  1
  O  O14  1  0.22220100  0.29481000  0.66520700  1
  O  O15  1  0.23944900  0.00000000  0.40147700  1
  O  O16  1  0.26115800  0.00000000  0.89914900  1
  O  O17  1  0.28518400  0.70816700  0.16109100  1
  O  O18  1  0.28518400  0.29183300  0.16109100  1
  O  O19  1  0.30238200  0.50000000  0.94926100  1
  O  O20  1  0.70410500  0.00000000  0.04863100  1
  O  O21  1  0.72434300  0.20417700  0.83403100  1
  O  O22  1  0.72434300  0.79582300  0.83403100  1
  O  O23  1  0.74277600  0.50000000  0.10094700  1
  O  O24  1  0.75786600  0.50000000  0.59909000  1
  O  O25  1  0.77127200  0.19963900  0.33576200  1
  O  O26  1  0.77127200  0.80036100  0.33576200  1
  O  O27  1  0.80095400  0.00000000  0.55036900  1
