# generated using pymatgen
data_Li2Mn2(CO3)3
_symmetry_space_group_name_H-M   'P 1'
_cell_length_a   6.97342001
_cell_length_b   10.19652651
_cell_length_c   4.87493600
_cell_angle_alpha   90.00000000
_cell_angle_beta   90.00000000
_cell_angle_gamma   90.00000000
_symmetry_Int_Tables_number   1
_chemical_formula_structural   Li2Mn2(CO3)3
_chemical_formula_sum   'Li4 Mn4 C6 O18'
_cell_volume   346.63067635
_cell_formula_units_Z   2
loop_
 _symmetry_equiv_pos_site_id
 _symmetry_equiv_pos_as_xyz
  1  'x, y, z'
loop_
 _atom_site_type_symbol
 _atom_site_label
 _atom_site_symmetry_multiplicity
 _atom_site_fract_x
 _atom_site_fract_y
 _atom_site_fract_z
 _atom_site_occupancy
  Li  Li0  1  0.65610550  0.50000000  0.00000000  1
  Li  Li1  1  0.92183050  0.50000000  0.50000000  1
  Li  Li2  1  0.15610550  0.00000000  0.00000000  1
  Li  Li3  1  0.42183050  0.00000000  0.50000000  1
  Mn  Mn4  1  0.02823825  0.78511125  0.50000000  1
  Mn  Mn5  1  0.02823825  0.21488875  0.50000000  1
  Mn  Mn6  1  0.52823825  0.28511125  0.50000000  1
  Mn  Mn7  1  0.52823825  0.71488875  0.50000000  1
  C  C8  1  0.29510050  0.50000000  0.50000000  1
  C  C9  1  0.87559275  0.70170125  0.00000000  1
  C  C10  1  0.87559275  0.29829875  0.00000000  1
  C  C11  1  0.79510050  0.00000000  0.50000000  1
  C  C12  1  0.37559275  0.20170125  0.00000000  1
  C  C13  1  0.37559275  0.79829875  0.00000000  1
  O  O14  1  0.48452775  0.50000000  0.50000000  1
  O  O15  1  0.96837225  0.81069225  0.00000000  1
  O  O16  1  0.96837225  0.18930775  0.00000000  1
  O  O17  1  0.20684250  0.61018950  0.50000000  1
  O  O18  1  0.20684250  0.38981050  0.50000000  1
  O  O19  1  0.82998325  0.64579975  0.23123700  1
  O  O20  1  0.82998325  0.35420025  0.23123700  1
  O  O21  1  0.82998325  0.64579975  0.76876300  1
  O  O22  1  0.82998325  0.35420025  0.76876300  1
  O  O23  1  0.98452775  0.00000000  0.50000000  1
  O  O24  1  0.46837225  0.31069225  0.00000000  1
  O  O25  1  0.46837225  0.68930775  0.00000000  1
  O  O26  1  0.70684250  0.11018950  0.50000000  1
  O  O27  1  0.70684250  0.88981050  0.50000000  1
  O  O28  1  0.32998325  0.14579975  0.23123700  1
  O  O29  1  0.32998325  0.85420025  0.23123700  1
  O  O30  1  0.32998325  0.14579975  0.76876300  1
  O  O31  1  0.32998325  0.85420025  0.76876300  1
