# generated using pymatgen
data_Li12MnNi3P4(CO7)4
_symmetry_space_group_name_H-M   'P 1'
_cell_length_a   8.37387700
_cell_length_b   6.46179100
_cell_length_c   9.98027926
_cell_angle_alpha   90.00000000
_cell_angle_beta   94.75159550
_cell_angle_gamma   90.00000000
_symmetry_Int_Tables_number   1
_chemical_formula_structural   Li12MnNi3P4(CO7)4
_chemical_formula_sum   'Li12 Mn1 Ni3 P4 C4 O28'
_cell_volume   538.17934090
_cell_formula_units_Z   1
loop_
 _symmetry_equiv_pos_site_id
 _symmetry_equiv_pos_as_xyz
  1  'x, y, z'
loop_
 _atom_site_type_symbol
 _atom_site_label
 _atom_site_symmetry_multiplicity
 _atom_site_fract_x
 _atom_site_fract_y
 _atom_site_fract_z
 _atom_site_occupancy
  Li  Li0  1  0.09916600  0.00000000  0.61745800  1
  Li  Li1  1  0.09240300  0.00000000  0.11860600  1
  Li  Li2  1  0.27670400  0.77130200  0.87631800  1
  Li  Li3  1  0.27670400  0.22869800  0.87631800  1
  Li  Li4  1  0.27489000  0.77125500  0.37722900  1
  Li  Li5  1  0.27489000  0.22874500  0.37722900  1
  Li  Li6  1  0.72307100  0.27168500  0.62567000  1
  Li  Li7  1  0.72307100  0.72831500  0.62567000  1
  Li  Li8  1  0.72446700  0.27231900  0.12113800  1
  Li  Li9  1  0.72446700  0.72768100  0.12113800  1
  Li  Li10  1  0.90289200  0.50000000  0.88255300  1
  Li  Li11  1  0.90243000  0.50000000  0.38343300  1
  Mn  Mn12  1  0.65928600  0.00000000  0.38875700  1
  Ni  Ni13  1  0.33257000  0.50000000  0.60442300  1
  Ni  Ni14  1  0.33192400  0.50000000  0.10283500  1
  Ni  Ni15  1  0.66690300  0.00000000  0.89712400  1
  P  P16  1  0.41477800  0.00000000  0.64317800  1
  P  P17  1  0.40986900  0.00000000  0.13543600  1
  P  P18  1  0.58451500  0.50000000  0.86101200  1
  P  P19  1  0.58512900  0.50000000  0.36180900  1
  C  C20  1  0.03981300  0.50000000  0.64860200  1
  C  C21  1  0.03948300  0.50000000  0.14835900  1
  C  C22  1  0.95985200  0.00000000  0.85101100  1
  C  C23  1  0.96901000  0.00000000  0.35100000  1
  O  O24  1  0.07653000  0.50000000  0.52498400  1
  O  O25  1  0.10699800  0.00000000  0.82037000  1
  O  O26  1  0.07554000  0.50000000  0.02468000  1
  O  O27  1  0.15681400  0.50000000  0.74299700  1
  O  O28  1  0.11703900  0.00000000  0.32135900  1
  O  O29  1  0.15706100  0.50000000  0.24240900  1
  O  O30  1  0.31040200  0.81328300  0.59059500  1
  O  O31  1  0.31040200  0.18671700  0.59059500  1
  O  O32  1  0.30750600  0.81251500  0.08269900  1
  O  O33  1  0.30750600  0.18748500  0.08269900  1
  O  O34  1  0.41776900  0.50000000  0.91573000  1
  O  O35  1  0.43577100  0.00000000  0.80037300  1
  O  O36  1  0.41834400  0.50000000  0.41678800  1
  O  O37  1  0.42628800  0.00000000  0.29203400  1
  O  O38  1  0.56118800  0.50000000  0.70419100  1
  O  O39  1  0.58254300  0.00000000  0.59060200  1
  O  O40  1  0.56107600  0.50000000  0.20488800  1
  O  O41  1  0.58142300  0.00000000  0.08779600  1
  O  O42  1  0.69019100  0.68669800  0.91193200  1
  O  O43  1  0.69019100  0.31330200  0.91193200  1
  O  O44  1  0.69153800  0.31545400  0.41306200  1
  O  O45  1  0.69153800  0.68454600  0.41306200  1
  O  O46  1  0.84265100  0.00000000  0.75682400  1
  O  O47  1  0.89249500  0.50000000  0.67953500  1
  O  O48  1  0.85565300  0.00000000  0.25338600  1
  O  O49  1  0.92263000  0.00000000  0.97454200  1
  O  O50  1  0.89228500  0.50000000  0.17964000  1
  O  O51  1  0.93234100  0.00000000  0.47399400  1
