# generated using pymatgen
data_Ti3VSb2(PO4)6
_symmetry_space_group_name_H-M   'P 1'
_cell_length_a   8.71972696
_cell_length_b   8.71972696
_cell_length_c   22.15184286
_cell_angle_alpha   90.00000000
_cell_angle_beta   90.00000000
_cell_angle_gamma   120.00000000
_symmetry_Int_Tables_number   1
_chemical_formula_structural   Ti3VSb2(PO4)6
_chemical_formula_sum   'Ti9 V3 Sb6 P18 O72'
_cell_volume   1458.63377627
_cell_formula_units_Z   3
loop_
 _symmetry_equiv_pos_site_id
 _symmetry_equiv_pos_as_xyz
  1  'x, y, z'
loop_
 _atom_site_type_symbol
 _atom_site_label
 _atom_site_symmetry_multiplicity
 _atom_site_fract_x
 _atom_site_fract_y
 _atom_site_fract_z
 _atom_site_occupancy
  Ti  Ti0  1  0.33333333  0.66666667  0.01792467  1
  Ti  Ti1  1  0.00000000  0.00000000  0.14717900  1
  Ti  Ti2  1  0.33333333  0.66666667  0.31547867  1
  Ti  Ti3  1  0.00000000  0.00000000  0.35125800  1
  Ti  Ti4  1  0.66666667  0.33333333  0.48051233  1
  Ti  Ti5  1  0.00000000  0.00000000  0.64881200  1
  Ti  Ti6  1  0.66666667  0.33333333  0.68459133  1
  Ti  Ti7  1  0.33333333  0.66666667  0.81384567  1
  Ti  Ti8  1  0.66666667  0.33333333  0.98214533  1
  V  V9  1  0.66666667  0.33333333  0.18766533  1
  V  V10  1  0.33333333  0.66666667  0.52099867  1
  V  V11  1  0.00000000  0.00000000  0.85433200  1
  Sb  Sb12  1  0.66666667  0.33333333  0.33002033  1
  Sb  Sb13  1  0.33333333  0.66666667  0.16402767  1
  Sb  Sb14  1  0.33333333  0.66666667  0.66335367  1
  Sb  Sb15  1  0.00000000  0.00000000  0.49736100  1
  Sb  Sb16  1  0.00000000  0.00000000  0.99668700  1
  Sb  Sb17  1  0.66666667  0.33333333  0.83069433  1
  P  P18  1  0.37499333  0.04126667  0.08370067  1
  P  P19  1  0.66627333  0.62500667  0.08370067  1
  P  P20  1  0.95873333  0.33372667  0.08370067  1
  P  P21  1  0.70863400  0.99828700  0.25040200  1
  P  P22  1  0.00171300  0.71034700  0.25040200  1
  P  P23  1  0.28965300  0.29136600  0.25040200  1
  P  P24  1  0.04166000  0.37460000  0.41703400  1
  P  P25  1  0.33294000  0.95834000  0.41703400  1
  P  P26  1  0.62540000  0.66706000  0.41703400  1
  P  P27  1  0.37530067  0.33162033  0.58373533  1
  P  P28  1  0.66837967  0.04368033  0.58373533  1
  P  P29  1  0.95631967  0.62469933  0.58373533  1
  P  P30  1  0.70832667  0.70793333  0.75036733  1
  P  P31  1  0.99960667  0.29167333  0.75036733  1
  P  P32  1  0.29206667  0.00039333  0.75036733  1
  P  P33  1  0.04196733  0.66495367  0.91706867  1
  P  P34  1  0.33504633  0.37701367  0.91706867  1
  P  P35  1  0.62298633  0.95803267  0.91706867  1
  O  O36  1  0.67356867  0.53029733  0.02543833  1
  O  O37  1  0.85672867  0.32643133  0.02543833  1
  O  O38  1  0.46970267  0.14327133  0.02543833  1
  O  O39  1  0.18485033  0.01950567  0.08181467  1
  O  O40  1  0.47023467  0.12418233  0.14145933  1
  O  O41  1  0.34918067  0.84808533  0.08172233  1
  O  O42  1  0.83465533  0.81514967  0.08181467  1
  O  O43  1  0.49890467  0.65081933  0.08172233  1
  O  O44  1  0.80323033  0.99379467  0.19224367  1
  O  O45  1  0.15191467  0.50109533  0.08172233  1
  O  O46  1  0.68826900  0.16524800  0.25399100  1
  O  O47  1  0.00620533  0.80943567  0.19224367  1
  O  O48  1  0.65394767  0.52976533  0.14145933  1
  O  O49  1  0.98049433  0.16534467  0.08181467  1
  O  O50  1  0.51973867  0.83023033  0.24969433  1
  O  O51  1  0.87581767  0.34605233  0.14145933  1
  O  O52  1  0.16976967  0.68950833  0.24969433  1
  O  O53  1  0.83475200  0.52302100  0.25399100  1
  O  O54  1  0.31049167  0.48026133  0.24969433  1
  O  O55  1  0.19056433  0.19676967  0.19224367  1
  O  O56  1  0.47697900  0.31173100  0.25399100  1
  O  O57  1  0.19174467  0.18975433  0.30765733  1
  O  O58  1  0.81024567  0.00199033  0.30765733  1
  O  O59  1  0.99800967  0.80825533  0.30765733  1
  O  O60  1  0.34023533  0.86363067  0.35877167  1
  O  O61  1  0.52339533  0.65976467  0.35877167  1
  O  O62  1  0.13636933  0.47660467  0.35877167  1
  O  O63  1  0.85151700  0.35283900  0.41514800  1
  O  O64  1  0.13690133  0.45751567  0.47479267  1
  O  O65  1  0.01584733  0.18141867  0.41505567  1
  O  O66  1  0.50132200  0.14848300  0.41514800  1
  O  O67  1  0.16557133  0.98415267  0.41505567  1
  O  O68  1  0.46989700  0.32712800  0.52557700  1
  O  O69  1  0.81858133  0.83442867  0.41505567  1
  O  O70  1  0.35493567  0.49858133  0.58732433  1
  O  O71  1  0.67287200  0.14276900  0.52557700  1
  O  O72  1  0.32061433  0.86309867  0.47479267  1
  O  O73  1  0.64716100  0.49867800  0.41514800  1
  O  O74  1  0.18640533  0.16356367  0.58302767  1
  O  O75  1  0.54248433  0.67938567  0.47479267  1
  O  O76  1  0.83643633  0.02284167  0.58302767  1
  O  O77  1  0.50141867  0.85635433  0.58732433  1
  O  O78  1  0.97715833  0.81359467  0.58302767  1
  O  O79  1  0.85723100  0.53010300  0.52557700  1
  O  O80  1  0.14364567  0.64506433  0.58732433  1
  O  O81  1  0.85841133  0.52308767  0.64099067  1
  O  O82  1  0.47691233  0.33532367  0.64099067  1
  O  O83  1  0.66467633  0.14158867  0.64099067  1
  O  O84  1  0.00690200  0.19696400  0.69210500  1
  O  O85  1  0.19006200  0.99309800  0.69210500  1
  O  O86  1  0.80303600  0.80993800  0.69210500  1
  O  O87  1  0.51818367  0.68617233  0.74848133  1
  O  O88  1  0.80356800  0.79084900  0.80812600  1
  O  O89  1  0.68251400  0.51475200  0.74838900  1
  O  O90  1  0.16798867  0.48181633  0.74848133  1
  O  O91  1  0.83223800  0.31748600  0.74838900  1
  O  O92  1  0.13656367  0.66046133  0.85891033  1
  O  O93  1  0.48524800  0.16776200  0.74838900  1
  O  O94  1  0.02160233  0.83191467  0.92065767  1
  O  O95  1  0.33953867  0.47610233  0.85891033  1
  O  O96  1  0.98728100  0.19643200  0.80812600  1
  O  O97  1  0.31382767  0.83201133  0.74848133  1
  O  O98  1  0.85307200  0.49689700  0.91636100  1
  O  O99  1  0.20915100  0.01271900  0.80812600  1
  O  O100  1  0.50310300  0.35617500  0.91636100  1
  O  O101  1  0.16808533  0.18968767  0.92065767  1
  O  O102  1  0.64382500  0.14692800  0.91636100  1
  O  O103  1  0.52389767  0.86343633  0.85891033  1
  O  O104  1  0.81031233  0.97839767  0.92065767  1
  O  O105  1  0.52507800  0.85642100  0.97432400  1
  O  O106  1  0.14357900  0.66865700  0.97432400  1
  O  O107  1  0.33134300  0.47492200  0.97432400  1
