# generated using pymatgen
data_Na3CrSiCO7
_symmetry_space_group_name_H-M   'P 1'
_cell_length_a   5.26792788
_cell_length_b   6.64679150
_cell_length_c   8.91804166
_cell_angle_alpha   90.00000000
_cell_angle_beta   92.18628593
_cell_angle_gamma   90.00000000
_symmetry_Int_Tables_number   1
_chemical_formula_structural   Na3CrSiCO7
_chemical_formula_sum   'Na6 Cr2 Si2 C2 O14'
_cell_volume   312.03630354
_cell_formula_units_Z   2
loop_
 _symmetry_equiv_pos_site_id
 _symmetry_equiv_pos_as_xyz
  1  'x, y, z'
loop_
 _atom_site_type_symbol
 _atom_site_label
 _atom_site_symmetry_multiplicity
 _atom_site_fract_x
 _atom_site_fract_y
 _atom_site_fract_z
 _atom_site_occupancy
  Na  Na0  1  0.77391200  0.75000000  0.41052350  1
  Na  Na1  1  0.22608800  0.25000000  0.58947650  1
  Na  Na2  1  0.26106950  0.98314100  0.22014000  1
  Na  Na3  1  0.26106950  0.51685900  0.22014000  1
  Na  Na4  1  0.73893050  0.48314100  0.77986000  1
  Na  Na5  1  0.73893050  0.01685900  0.77986000  1
  Cr  Cr6  1  0.78619000  0.25000000  0.15957050  1
  Cr  Cr7  1  0.21381000  0.75000000  0.84042950  1
  Si  Si8  1  0.71845050  0.75000000  0.07803900  1
  Si  Si9  1  0.28154950  0.25000000  0.92196100  1
  C  C10  1  0.71509800  0.25000000  0.43885900  1
  C  C11  1  0.28490200  0.75000000  0.56114100  1
  O  O12  1  0.31599300  0.75000000  0.41948950  1
  O  O13  1  0.68400700  0.25000000  0.58051050  1
  O  O14  1  0.94133750  0.25000000  0.38298200  1
  O  O15  1  0.05866250  0.75000000  0.61701800  1
  O  O16  1  0.52312500  0.25000000  0.34090400  1
  O  O17  1  0.47687500  0.75000000  0.65909600  1
  O  O18  1  0.40965650  0.75000000  0.03454150  1
  O  O19  1  0.59034350  0.25000000  0.96545850  1
  O  O20  1  0.12623750  0.25000000  0.07720100  1
  O  O21  1  0.87376250  0.75000000  0.92279900  1
  O  O22  1  0.78634950  0.94653850  0.18589350  1
  O  O23  1  0.78634950  0.55346150  0.18589350  1
  O  O24  1  0.21365050  0.44653850  0.81410650  1
  O  O25  1  0.21365050  0.05346150  0.81410650  1
