# generated using pymatgen
data_Li4Co2Si3O10
_symmetry_space_group_name_H-M   'P 1'
_cell_length_a   9.25856200
_cell_length_b   5.41116200
_cell_length_c   17.08429102
_cell_angle_alpha   90.00000000
_cell_angle_beta   98.68047228
_cell_angle_gamma   90.00000000
_symmetry_Int_Tables_number   1
_chemical_formula_structural   Li4Co2Si3O10
_chemical_formula_sum   'Li16 Co8 Si12 O40'
_cell_volume   846.11159739
_cell_formula_units_Z   4
loop_
 _symmetry_equiv_pos_site_id
 _symmetry_equiv_pos_as_xyz
  1  'x, y, z'
loop_
 _atom_site_type_symbol
 _atom_site_label
 _atom_site_symmetry_multiplicity
 _atom_site_fract_x
 _atom_site_fract_y
 _atom_site_fract_z
 _atom_site_occupancy
  Li  Li0  1  0.75569100  0.92852100  0.55163800  1
  Li  Li1  1  0.68231950  0.10362650  0.72853100  1
  Li  Li2  1  0.75569100  0.07147900  0.05163800  1
  Li  Li3  1  0.68231950  0.89637350  0.22853100  1
  Li  Li4  1  0.31768050  0.10362650  0.77146900  1
  Li  Li5  1  0.24430900  0.92852100  0.94836200  1
  Li  Li6  1  0.31768050  0.89637350  0.27146900  1
  Li  Li7  1  0.24430900  0.07147900  0.44836200  1
  Li  Li8  1  0.25569100  0.42852100  0.55163800  1
  Li  Li9  1  0.18231950  0.60362650  0.72853100  1
  Li  Li10  1  0.25569100  0.57147900  0.05163800  1
  Li  Li11  1  0.18231950  0.39637350  0.22853100  1
  Li  Li12  1  0.81768050  0.60362650  0.77146900  1
  Li  Li13  1  0.74430900  0.42852100  0.94836200  1
  Li  Li14  1  0.81768050  0.39637350  0.27146900  1
  Li  Li15  1  0.74430900  0.57147900  0.44836200  1
  Co  Co16  1  0.10338200  0.91560300  0.58659800  1
  Co  Co17  1  0.10338200  0.08439700  0.08659800  1
  Co  Co18  1  0.89661800  0.91560300  0.91340200  1
  Co  Co19  1  0.89661800  0.08439700  0.41340200  1
  Co  Co20  1  0.60338200  0.41560300  0.58659800  1
  Co  Co21  1  0.60338200  0.58439700  0.08659800  1
  Co  Co22  1  0.39661800  0.41560300  0.91340200  1
  Co  Co23  1  0.39661800  0.58439700  0.41340200  1
  Si  Si24  1  0.56474100  0.90256300  0.90239100  1
  Si  Si25  1  0.50000000  0.61850400  0.75000000  1
  Si  Si26  1  0.43525900  0.90256300  0.59760900  1
  Si  Si27  1  0.56474100  0.09743700  0.40239100  1
  Si  Si28  1  0.50000000  0.38149600  0.25000000  1
  Si  Si29  1  0.43525900  0.09743700  0.09760900  1
  Si  Si30  1  0.06474100  0.40256300  0.90239100  1
  Si  Si31  1  0.00000000  0.11850400  0.75000000  1
  Si  Si32  1  0.93525900  0.40256300  0.59760900  1
  Si  Si33  1  0.06474100  0.59743700  0.40239100  1
  Si  Si34  1  0.00000000  0.88149600  0.25000000  1
  Si  Si35  1  0.93525900  0.59743700  0.09760900  1
  O  O36  1  0.87953800  0.96194700  0.78887900  1
  O  O37  1  0.87953800  0.03805300  0.28887900  1
  O  O38  1  0.70550300  0.07394700  0.93528000  1
  O  O39  1  0.59362300  0.04506200  0.60719500  1
  O  O40  1  0.59546750  0.81833750  0.81144100  1
  O  O41  1  0.43405800  0.64156000  0.54836000  1
  O  O42  1  0.56594200  0.64156000  0.95164000  1
  O  O43  1  0.70550300  0.92605300  0.43528000  1
  O  O44  1  0.59362300  0.95493800  0.10719500  1
  O  O45  1  0.40453250  0.81833750  0.68855900  1
  O  O46  1  0.59546750  0.18166250  0.31144100  1
  O  O47  1  0.40637700  0.04506200  0.89280500  1
  O  O48  1  0.29449700  0.07394700  0.56472000  1
  O  O49  1  0.43405800  0.35844000  0.04836000  1
  O  O50  1  0.56594200  0.35844000  0.45164000  1
  O  O51  1  0.40453250  0.18166250  0.18855900  1
  O  O52  1  0.40637700  0.95493800  0.39280500  1
  O  O53  1  0.29449700  0.92605300  0.06472000  1
  O  O54  1  0.12046200  0.96194700  0.71112100  1
  O  O55  1  0.12046200  0.03805300  0.21112100  1
  O  O56  1  0.37953800  0.46194700  0.78887900  1
  O  O57  1  0.37953800  0.53805300  0.28887900  1
  O  O58  1  0.20550300  0.57394700  0.93528000  1
  O  O59  1  0.09362300  0.54506200  0.60719500  1
  O  O60  1  0.09546750  0.31833750  0.81144100  1
  O  O61  1  0.93405800  0.14156000  0.54836000  1
  O  O62  1  0.06594200  0.14156000  0.95164000  1
  O  O63  1  0.20550300  0.42605300  0.43528000  1
  O  O64  1  0.09362300  0.45493800  0.10719500  1
  O  O65  1  0.90453250  0.31833750  0.68855900  1
  O  O66  1  0.09546750  0.68166250  0.31144100  1
  O  O67  1  0.90637700  0.54506200  0.89280500  1
  O  O68  1  0.79449700  0.57394700  0.56472000  1
  O  O69  1  0.93405800  0.85844000  0.04836000  1
  O  O70  1  0.06594200  0.85844000  0.45164000  1
  O  O71  1  0.90453250  0.68166250  0.18855900  1
  O  O72  1  0.90637700  0.45493800  0.39280500  1
  O  O73  1  0.79449700  0.42605300  0.06472000  1
  O  O74  1  0.62046200  0.46194700  0.71112100  1
  O  O75  1  0.62046200  0.53805300  0.21112100  1
