# generated using pymatgen
data_Li4Co3Ni3(WO8)2
_symmetry_space_group_name_H-M   'P 1'
_cell_length_a   10.25371200
_cell_length_b   5.93772200
_cell_length_c   9.74358534
_cell_angle_alpha   90.00000000
_cell_angle_beta   90.40493665
_cell_angle_gamma   90.00000000
_symmetry_Int_Tables_number   1
_chemical_formula_structural   Li4Co3Ni3(WO8)2
_chemical_formula_sum   'Li8 Co6 Ni6 W4 O32'
_cell_volume   593.21062679
_cell_formula_units_Z   2
loop_
 _symmetry_equiv_pos_site_id
 _symmetry_equiv_pos_as_xyz
  1  'x, y, z'
loop_
 _atom_site_type_symbol
 _atom_site_label
 _atom_site_symmetry_multiplicity
 _atom_site_fract_x
 _atom_site_fract_y
 _atom_site_fract_z
 _atom_site_occupancy
  Li  Li0  1  0.33638200  0.00000000  0.90444900  1
  Li  Li1  1  0.99452600  0.00000000  0.98896000  1
  Li  Li2  1  0.99536600  0.00000000  0.49042600  1
  Li  Li3  1  0.66933400  0.00000000  0.40380500  1
  Li  Li4  1  0.83638200  0.50000000  0.90444900  1
  Li  Li5  1  0.49452600  0.50000000  0.98896000  1
  Li  Li6  1  0.49536600  0.50000000  0.49042600  1
  Li  Li7  1  0.16933400  0.50000000  0.40380500  1
  Co  Co8  1  0.41092450  0.75693750  0.21896800  1
  Co  Co9  1  0.41092450  0.24306250  0.21896800  1
  Co  Co10  1  0.82544600  0.00000000  0.72139700  1
  Co  Co11  1  0.91092450  0.25693750  0.21896800  1
  Co  Co12  1  0.91092450  0.74306250  0.21896800  1
  Co  Co13  1  0.32544600  0.50000000  0.72139700  1
  Ni  Ni14  1  0.16985800  0.00000000  0.21152800  1
  Ni  Ni15  1  0.58552400  0.75402600  0.71472700  1
  Ni  Ni16  1  0.58552400  0.24597400  0.71472700  1
  Ni  Ni17  1  0.66985800  0.50000000  0.21152800  1
  Ni  Ni18  1  0.08552400  0.25402600  0.71472700  1
  Ni  Ni19  1  0.08552400  0.74597400  0.71472700  1
  W  W20  1  0.32961100  0.00000000  0.49045700  1
  W  W21  1  0.66055100  0.00000000  0.98859200  1
  W  W22  1  0.82961100  0.50000000  0.49045700  1
  W  W23  1  0.16055100  0.50000000  0.98859200  1
  O  O24  1  0.41512900  0.76112600  0.58707100  1
  O  O25  1  0.48139000  0.00000000  0.35147900  1
  O  O26  1  0.34550400  0.00000000  0.11088000  1
  O  O27  1  0.99194600  0.00000000  0.29727400  1
  O  O28  1  0.98427800  0.00000000  0.79652700  1
  O  O29  1  0.41512900  0.23887400  0.58707100  1
  O  O30  1  0.26151850  0.77773250  0.34983400  1
  O  O31  1  0.26151850  0.22226750  0.34983400  1
  O  O32  1  0.82553000  0.00000000  0.08798100  1
  O  O33  1  0.16960400  0.00000000  0.58551100  1
  O  O34  1  0.74398100  0.78018800  0.85095000  1
  O  O35  1  0.74398100  0.21981200  0.85095000  1
  O  O36  1  0.68452200  0.00000000  0.61366600  1
  O  O37  1  0.58725750  0.75464650  0.08555900  1
  O  O38  1  0.52010500  0.00000000  0.85059500  1
  O  O39  1  0.58725750  0.24535350  0.08555900  1
  O  O40  1  0.91512900  0.26112600  0.58707100  1
  O  O41  1  0.98139000  0.50000000  0.35147900  1
  O  O42  1  0.84550400  0.50000000  0.11088000  1
  O  O43  1  0.49194600  0.50000000  0.29727400  1
  O  O44  1  0.48427800  0.50000000  0.79652700  1
  O  O45  1  0.91512900  0.73887400  0.58707100  1
  O  O46  1  0.76151850  0.27773250  0.34983400  1
  O  O47  1  0.76151850  0.72226750  0.34983400  1
  O  O48  1  0.32553000  0.50000000  0.08798100  1
  O  O49  1  0.66960400  0.50000000  0.58551100  1
  O  O50  1  0.24398100  0.28018800  0.85095000  1
  O  O51  1  0.24398100  0.71981200  0.85095000  1
  O  O52  1  0.18452200  0.50000000  0.61366600  1
  O  O53  1  0.08725750  0.25464650  0.08555900  1
  O  O54  1  0.02010500  0.50000000  0.85059500  1
  O  O55  1  0.08725750  0.74535350  0.08555900  1
