# generated using pymatgen
data_MnFe3(PO4)4
_symmetry_space_group_name_H-M   'P 1'
_cell_length_a   7.72642500
_cell_length_b   9.93721400
_cell_length_c   7.73878048
_cell_angle_alpha   90.00000000
_cell_angle_beta   101.27660932
_cell_angle_gamma   90.00000000
_symmetry_Int_Tables_number   1
_chemical_formula_structural   MnFe3(PO4)4
_chemical_formula_sum   'Mn2 Fe6 P8 O32'
_cell_volume   582.70605951
_cell_formula_units_Z   2
loop_
 _symmetry_equiv_pos_site_id
 _symmetry_equiv_pos_as_xyz
  1  'x, y, z'
loop_
 _atom_site_type_symbol
 _atom_site_label
 _atom_site_symmetry_multiplicity
 _atom_site_fract_x
 _atom_site_fract_y
 _atom_site_fract_z
 _atom_site_occupancy
  Mn  Mn0  1  0.15977000  0.46483100  0.40452600  1
  Mn  Mn1  1  0.65977000  0.53516900  0.40452600  1
  Fe  Fe2  1  0.63717800  0.47575800  0.89485400  1
  Fe  Fe3  1  0.13717800  0.52424200  0.89485400  1
  Fe  Fe4  1  0.35928600  0.97698300  0.60959200  1
  Fe  Fe5  1  0.86062700  0.97622200  0.10984200  1
  Fe  Fe6  1  0.85928600  0.02301700  0.60959200  1
  Fe  Fe7  1  0.36062700  0.02377800  0.10984200  1
  P  P8  1  0.41638900  0.34857300  0.16376400  1
  P  P9  1  0.91224500  0.34968200  0.66507000  1
  P  P10  1  0.41224500  0.65031800  0.66507000  1
  P  P11  1  0.91638900  0.65142700  0.16376400  1
  P  P12  1  0.08478600  0.84834100  0.83405400  1
  P  P13  1  0.58520500  0.84716500  0.33529700  1
  P  P14  1  0.58478600  0.15165900  0.83405400  1
  P  P15  1  0.08520500  0.15283500  0.33529700  1
  O  O16  1  0.05059700  0.30399100  0.30147400  1
  O  O17  1  0.55124800  0.30160600  0.79748000  1
  O  O18  1  0.25941700  0.36953200  0.01114600  1
  O  O19  1  0.75916400  0.37162600  0.50817500  1
  O  O20  1  0.08577800  0.42320500  0.63973700  1
  O  O21  1  0.38871800  0.42223300  0.33638700  1
  O  O22  1  0.88371700  0.42268800  0.83740700  1
  O  O23  1  0.58738900  0.41958400  0.13065400  1
  O  O24  1  0.38371700  0.57731200  0.83740700  1
  O  O25  1  0.08738900  0.58041600  0.13065400  1
  O  O26  1  0.88871800  0.57776700  0.33638700  1
  O  O27  1  0.58577800  0.57679500  0.63973700  1
  O  O28  1  0.25916400  0.62837400  0.50817500  1
  O  O29  1  0.75941700  0.63046800  0.01114600  1
  O  O30  1  0.05124800  0.69839400  0.79748000  1
  O  O31  1  0.55059700  0.69600900  0.30147400  1
  O  O32  1  0.44301800  0.80090200  0.69492000  1
  O  O33  1  0.94767200  0.80265700  0.19784400  1
  O  O34  1  0.73965400  0.86822500  0.48915700  1
  O  O35  1  0.23851400  0.87061600  0.98834400  1
  O  O36  1  0.11267900  0.92421500  0.66190400  1
  O  O37  1  0.41210800  0.92076300  0.36331500  1
  O  O38  1  0.91200400  0.92287800  0.86234000  1
  O  O39  1  0.61283800  0.92102300  0.16271800  1
  O  O40  1  0.61267900  0.07578500  0.66190400  1
  O  O41  1  0.91210800  0.07923700  0.36331500  1
  O  O42  1  0.41200400  0.07712200  0.86234000  1
  O  O43  1  0.11283800  0.07897700  0.16271800  1
  O  O44  1  0.73851400  0.12938400  0.98834400  1
  O  O45  1  0.23965400  0.13177500  0.48915700  1
  O  O46  1  0.94301800  0.19909800  0.69492000  1
  O  O47  1  0.44767200  0.19734300  0.19784400  1
