# generated using pymatgen
data_CoTeO4
_symmetry_space_group_name_H-M   'P 1'
_cell_length_a   6.05735000
_cell_length_b   6.12898000
_cell_length_c   8.98857400
_cell_angle_alpha   90.00000000
_cell_angle_beta   90.00000000
_cell_angle_gamma   90.00000000
_symmetry_Int_Tables_number   1
_chemical_formula_structural   CoTeO4
_chemical_formula_sum   'Co4 Te4 O16'
_cell_volume   333.70419847
_cell_formula_units_Z   4
loop_
 _symmetry_equiv_pos_site_id
 _symmetry_equiv_pos_as_xyz
  1  'x, y, z'
loop_
 _atom_site_type_symbol
 _atom_site_label
 _atom_site_symmetry_multiplicity
 _atom_site_fract_x
 _atom_site_fract_y
 _atom_site_fract_z
 _atom_site_occupancy
  Co  Co0  1  0.75000000  0.75000000  0.75000000  1
  Co  Co1  1  0.25000000  0.75000000  0.75000000  1
  Co  Co2  1  0.25000000  0.25000000  0.25000000  1
  Co  Co3  1  0.75000000  0.25000000  0.25000000  1
  Te  Te4  1  0.00000000  0.00000000  0.00000000  1
  Te  Te5  1  0.00000000  0.50000000  0.00000000  1
  Te  Te6  1  0.50000000  0.50000000  0.50000000  1
  Te  Te7  1  0.50000000  0.00000000  0.50000000  1
  O  O8  1  0.50000000  0.97564100  0.71250200  1
  O  O9  1  0.27846700  0.75000000  0.50099900  1
  O  O10  1  0.50000000  0.52435900  0.71250200  1
  O  O11  1  0.72153300  0.75000000  0.50099900  1
  O  O12  1  0.77846700  0.75000000  0.99900100  1
  O  O13  1  0.00000000  0.97564100  0.78749800  1
  O  O14  1  0.22153300  0.75000000  0.99900100  1
  O  O15  1  0.00000000  0.52435900  0.78749800  1
  O  O16  1  0.00000000  0.47564100  0.21250200  1
  O  O17  1  0.77846700  0.25000000  0.00099900  1
  O  O18  1  0.00000000  0.02435900  0.21250200  1
  O  O19  1  0.22153300  0.25000000  0.00099900  1
  O  O20  1  0.27846700  0.25000000  0.49900100  1
  O  O21  1  0.50000000  0.47564100  0.28749800  1
  O  O22  1  0.72153300  0.25000000  0.49900100  1
  O  O23  1  0.50000000  0.02435900  0.28749800  1
