# generated using pymatgen
data_Dy2(BiO2)7
_symmetry_space_group_name_H-M   'P 1'
_cell_length_a   20.80619000
_cell_length_b   3.91907600
_cell_length_c   10.50346393
_cell_angle_alpha   90.00000000
_cell_angle_beta   114.84632202
_cell_angle_gamma   90.00000000
_symmetry_Int_Tables_number   1
_chemical_formula_structural   Dy2(BiO2)7
_chemical_formula_sum   'Dy4 Bi14 O28'
_cell_volume   777.18746557
_cell_formula_units_Z   2
loop_
 _symmetry_equiv_pos_site_id
 _symmetry_equiv_pos_as_xyz
  1  'x, y, z'
loop_
 _atom_site_type_symbol
 _atom_site_label
 _atom_site_symmetry_multiplicity
 _atom_site_fract_x
 _atom_site_fract_y
 _atom_site_fract_z
 _atom_site_occupancy
  Dy  Dy0  1  0.00471400  0.00000000  0.00083900  1
  Dy  Dy1  1  0.16841600  0.50000000  0.02022600  1
  Dy  Dy2  1  0.50471400  0.50000000  0.00083900  1
  Dy  Dy3  1  0.66841600  0.00000000  0.02022600  1
  Bi  Bi4  1  0.01080800  0.50000000  0.30749700  1
  Bi  Bi5  1  0.15505200  0.00000000  0.67136900  1
  Bi  Bi6  1  0.18001200  0.00000000  0.31837000  1
  Bi  Bi7  1  0.32084500  0.50000000  0.68721200  1
  Bi  Bi8  1  0.32981000  0.00000000  0.98862300  1
  Bi  Bi9  1  0.34279000  0.50000000  0.32699100  1
  Bi  Bi10  1  0.48745300  0.00000000  0.68475000  1
  Bi  Bi11  1  0.51080800  0.00000000  0.30749700  1
  Bi  Bi12  1  0.65505200  0.50000000  0.67136900  1
  Bi  Bi13  1  0.68001200  0.50000000  0.31837000  1
  Bi  Bi14  1  0.82084500  0.00000000  0.68721200  1
  Bi  Bi15  1  0.82981000  0.50000000  0.98862300  1
  Bi  Bi16  1  0.84279000  0.00000000  0.32699100  1
  Bi  Bi17  1  0.98745300  0.50000000  0.68475000  1
  O  O18  1  0.04228800  0.50000000  0.90628600  1
  O  O19  1  0.05012500  0.00000000  0.67238900  1
  O  O20  1  0.06552500  0.00000000  0.26223900  1
  O  O21  1  0.20057800  0.00000000  0.89991600  1
  O  O22  1  0.16689700  0.50000000  0.58688900  1
  O  O23  1  0.21069200  0.50000000  0.25906100  1
  O  O24  1  0.13258600  0.00000000  0.08855500  1
  O  O25  1  0.36668700  0.50000000  0.91480500  1
  O  O26  1  0.28925200  0.00000000  0.74834000  1
  O  O27  1  0.28922200  0.50000000  0.10179800  1
  O  O28  1  0.43622600  0.50000000  0.74709300  1
  O  O29  1  0.33682300  0.00000000  0.41810200  1
  O  O30  1  0.44256100  0.50000000  0.30359400  1
  O  O31  1  0.47065100  0.00000000  0.08505500  1
  O  O32  1  0.54228800  0.00000000  0.90628600  1
  O  O33  1  0.55012500  0.50000000  0.67238900  1
  O  O34  1  0.56552500  0.50000000  0.26223900  1
  O  O35  1  0.70057800  0.50000000  0.89991600  1
  O  O36  1  0.66689700  0.00000000  0.58688900  1
  O  O37  1  0.71069200  0.00000000  0.25906100  1
  O  O38  1  0.63258600  0.50000000  0.08855500  1
  O  O39  1  0.86668700  0.00000000  0.91480500  1
  O  O40  1  0.78925200  0.50000000  0.74834000  1
  O  O41  1  0.78922200  0.00000000  0.10179800  1
  O  O42  1  0.93622600  0.00000000  0.74709300  1
  O  O43  1  0.83682300  0.50000000  0.41810200  1
  O  O44  1  0.94256100  0.00000000  0.30359400  1
  O  O45  1  0.97065100  0.50000000  0.08505500  1
