# generated using pymatgen
data_LiFeF4
_symmetry_space_group_name_H-M   'P 1'
_cell_length_a   12.61159188
_cell_length_b   12.61159188
_cell_length_c   5.59097553
_cell_angle_alpha   90.00000000
_cell_angle_beta   90.00000000
_cell_angle_gamma   120.00000000
_symmetry_Int_Tables_number   1
_chemical_formula_structural   LiFeF4
_chemical_formula_sum   'Li9 Fe9 F36'
_cell_volume   770.11935661
_cell_formula_units_Z   9
loop_
 _symmetry_equiv_pos_site_id
 _symmetry_equiv_pos_as_xyz
  1  'x, y, z'
loop_
 _atom_site_type_symbol
 _atom_site_label
 _atom_site_symmetry_multiplicity
 _atom_site_fract_x
 _atom_site_fract_y
 _atom_site_fract_z
 _atom_site_occupancy
  Li  Li0  1  0.82217867  0.91108933  0.19622033  1
  Li  Li1  1  0.75557733  0.24442267  0.52955367  1
  Li  Li2  1  0.08891067  0.17782133  0.19622033  1
  Li  Li3  1  0.48884533  0.24442267  0.52955367  1
  Li  Li4  1  0.42224400  0.57775600  0.86288700  1
  Li  Li5  1  0.75557733  0.51115467  0.52955367  1
  Li  Li6  1  0.15551200  0.57775600  0.86288700  1
  Li  Li7  1  0.08891067  0.91108933  0.19622033  1
  Li  Li8  1  0.42224400  0.84448800  0.86288700  1
  Fe  Fe9  1  0.64985333  0.82492667  0.75131867  1
  Fe  Fe10  1  0.84174000  0.15826000  0.08465200  1
  Fe  Fe11  1  0.17507333  0.35014667  0.75131867  1
  Fe  Fe12  1  0.31652000  0.15826000  0.08465200  1
  Fe  Fe13  1  0.50840667  0.49159333  0.41798533  1
  Fe  Fe14  1  0.84174000  0.68348000  0.08465200  1
  Fe  Fe15  1  0.98318667  0.49159333  0.41798533  1
  Fe  Fe16  1  0.17507333  0.82492667  0.75131867  1
  Fe  Fe17  1  0.50840667  0.01681333  0.41798533  1
  F  F18  1  0.89236233  0.30800767  0.27710967  1
  F  F19  1  0.55902900  0.91768800  0.61044300  1
  F  F20  1  0.74897867  0.97467433  0.94377633  1
  F  F21  1  0.13718667  0.27437333  0.45932833  1
  F  F22  1  0.25014333  0.50028667  0.92607467  1
  F  F23  1  0.80385333  0.19614667  0.79266167  1
  F  F24  1  0.91681000  0.08319000  0.25940800  1
  F  F25  1  0.49971333  0.74985667  0.92607467  1
  F  F26  1  0.72562667  0.86281333  0.45932833  1
  F  F27  1  0.02532567  0.25102133  0.94377633  1
  F  F28  1  0.08231200  0.44097100  0.61044300  1
  F  F29  1  0.69199233  0.10763767  0.27710967  1
  F  F30  1  0.55902900  0.64134100  0.61044300  1
  F  F31  1  0.22569567  0.25102133  0.94377633  1
  F  F32  1  0.41564533  0.30800767  0.27710967  1
  F  F33  1  0.80385333  0.60770667  0.79266167  1
  F  F34  1  0.91681000  0.83362000  0.25940800  1
  F  F35  1  0.47052000  0.52948000  0.12599500  1
  F  F36  1  0.58347667  0.41652333  0.59274133  1
  F  F37  1  0.16638000  0.08319000  0.25940800  1
  F  F38  1  0.39229333  0.19614667  0.79266167  1
  F  F39  1  0.69199233  0.58435467  0.27710967  1
  F  F40  1  0.74897867  0.77430433  0.94377633  1
  F  F41  1  0.35865900  0.44097100  0.61044300  1
  F  F42  1  0.22569567  0.97467433  0.94377633  1
  F  F43  1  0.89236233  0.58435467  0.27710967  1
  F  F44  1  0.08231200  0.64134100  0.61044300  1
  F  F45  1  0.47052000  0.94104000  0.12599500  1
  F  F46  1  0.58347667  0.16695333  0.59274133  1
  F  F47  1  0.13718667  0.86281333  0.45932833  1
  F  F48  1  0.25014333  0.74985667  0.92607467  1
  F  F49  1  0.83304667  0.41652333  0.59274133  1
  F  F50  1  0.05896000  0.52948000  0.12599500  1
  F  F51  1  0.35865900  0.91768800  0.61044300  1
  F  F52  1  0.41564533  0.10763767  0.27710967  1
  F  F53  1  0.02532567  0.77430433  0.94377633  1
