# generated using pymatgen
data_CrPO4
_symmetry_space_group_name_H-M   'P 1'
_cell_length_a   5.57257075
_cell_length_b   6.46282245
_cell_length_c   9.28793353
_cell_angle_alpha   72.87119598
_cell_angle_beta   80.65505467
_cell_angle_gamma   77.50006310
_symmetry_Int_Tables_number   1
_chemical_formula_structural   CrPO4
_chemical_formula_sum   'Cr4 P4 O16'
_cell_volume   310.33780681
_cell_formula_units_Z   4
loop_
 _symmetry_equiv_pos_site_id
 _symmetry_equiv_pos_as_xyz
  1  'x, y, z'
loop_
 _atom_site_type_symbol
 _atom_site_label
 _atom_site_symmetry_multiplicity
 _atom_site_fract_x
 _atom_site_fract_y
 _atom_site_fract_z
 _atom_site_occupancy
  Cr  Cr0  1  0.30096800  0.91293700  0.80346200  1
  Cr  Cr1  1  0.79417400  0.16462400  0.56676100  1
  Cr  Cr2  1  0.20582600  0.83537600  0.43323900  1
  Cr  Cr3  1  0.69903200  0.08706300  0.19653800  1
  P  P4  1  0.83867300  0.85158200  0.90428200  1
  P  P5  1  0.65683100  0.71360200  0.52813100  1
  P  P6  1  0.34316900  0.28639800  0.47186900  1
  P  P7  1  0.16132700  0.14841800  0.09571800  1
  O  O8  1  0.64085400  0.76818300  0.85071300  1
  O  O9  1  0.09353500  0.69598600  0.91837700  1
  O  O10  1  0.26013500  0.07082500  0.95514700  1
  O  O11  1  0.93112700  0.05043000  0.76391800  1
  O  O12  1  0.85183300  0.84796800  0.54323800  1
  O  O13  1  0.76785100  0.47382400  0.56219600  1
  O  O14  1  0.39956300  0.75978800  0.62242300  1
  O  O15  1  0.42999300  0.18301400  0.63715600  1
  O  O16  1  0.57000700  0.81698600  0.36284400  1
  O  O17  1  0.60043700  0.24021200  0.37757700  1
  O  O18  1  0.23214900  0.52617600  0.43780400  1
  O  O19  1  0.14816700  0.15203200  0.45676200  1
  O  O20  1  0.06887300  0.94957000  0.23608200  1
  O  O21  1  0.73986500  0.92917500  0.04485300  1
  O  O22  1  0.90646500  0.30401400  0.08162300  1
  O  O23  1  0.35914600  0.23181700  0.14928700  1
