# generated using pymatgen
data_Na5Fe2P2(CO7)2
_symmetry_space_group_name_H-M   'P 1'
_cell_length_a   10.39082100
_cell_length_b   6.64418300
_cell_length_c   10.45977701
_cell_angle_alpha   90.00000000
_cell_angle_beta   119.48987001
_cell_angle_gamma   90.00000000
_symmetry_Int_Tables_number   1
_chemical_formula_structural   Na5Fe2P2(CO7)2
_chemical_formula_sum   'Na10 Fe4 P4 C4 O28'
_cell_volume   628.57062942
_cell_formula_units_Z   2
loop_
 _symmetry_equiv_pos_site_id
 _symmetry_equiv_pos_as_xyz
  1  'x, y, z'
loop_
 _atom_site_type_symbol
 _atom_site_label
 _atom_site_symmetry_multiplicity
 _atom_site_fract_x
 _atom_site_fract_y
 _atom_site_fract_z
 _atom_site_occupancy
  Na  Na0  1  0.90673900  0.74157600  0.81904700  1
  Na  Na1  1  0.41008900  0.75037300  0.33493500  1
  Na  Na2  1  0.24830800  0.99969600  0.98798200  1
  Na  Na3  1  0.24597000  0.50277300  0.98572500  1
  Na  Na4  1  0.76499700  0.98116300  0.49705800  1
  Na  Na5  1  0.75403000  0.00277300  0.01427500  1
  Na  Na6  1  0.75169200  0.49969600  0.01201800  1
  Na  Na7  1  0.23500300  0.48116300  0.50294200  1
  Na  Na8  1  0.09326100  0.24157600  0.18095300  1
  Na  Na9  1  0.58991100  0.25037300  0.66506500  1
  Fe  Fe10  1  0.53869000  0.25533400  0.18648700  1
  Fe  Fe11  1  0.02764300  0.25795700  0.67620600  1
  Fe  Fe12  1  0.46131000  0.75533400  0.81351300  1
  Fe  Fe13  1  0.97235700  0.75795700  0.32379400  1
  P  P14  1  0.60230600  0.75240900  0.18255900  1
  P  P15  1  0.10917700  0.74987700  0.68984700  1
  P  P16  1  0.39769400  0.25240900  0.81744100  1
  P  P17  1  0.89082300  0.24987700  0.31015300  1
  C  C18  1  0.91603400  0.24371000  0.86024000  1
  C  C19  1  0.41831900  0.25412200  0.34660300  1
  C  C20  1  0.08396600  0.74371000  0.13976000  1
  C  C21  1  0.58168100  0.75412200  0.65339700  1
  O  O22  1  0.14823900  0.75168200  0.06042200  1
  O  O23  1  0.63714200  0.77008600  0.57002000  1
  O  O24  1  0.33629900  0.25510800  0.20259100  1
  O  O25  1  0.83794100  0.23337800  0.71806700  1
  O  O26  1  0.05938700  0.24749000  0.92154100  1
  O  O27  1  0.56120600  0.23757900  0.39712100  1
  O  O28  1  0.51552700  0.56452500  0.19077100  1
  O  O29  1  0.51485200  0.94007000  0.19043400  1
  O  O30  1  0.04119400  0.56537000  0.72513500  1
  O  O31  1  0.02827900  0.93605800  0.70525800  1
  O  O32  1  0.39790600  0.25113100  0.96750000  1
  O  O33  1  0.88872400  0.23674300  0.45458700  1
  O  O34  1  0.27756300  0.75989500  0.81989400  1
  O  O35  1  0.76215900  0.75943300  0.30665500  1
  O  O36  1  0.72243700  0.25989500  0.18010600  1
  O  O37  1  0.23784100  0.25943300  0.69334500  1
  O  O38  1  0.60209400  0.75113100  0.03250000  1
  O  O39  1  0.11127600  0.73674300  0.54541300  1
  O  O40  1  0.48447300  0.06452500  0.80922900  1
  O  O41  1  0.48514800  0.44007000  0.80956600  1
  O  O42  1  0.97172100  0.43605800  0.29474200  1
  O  O43  1  0.95880600  0.06537000  0.27486500  1
  O  O44  1  0.94061300  0.74749000  0.07845900  1
  O  O45  1  0.43879400  0.73757900  0.60287900  1
  O  O46  1  0.66370100  0.75510800  0.79740900  1
  O  O47  1  0.16205900  0.73337800  0.28193300  1
  O  O48  1  0.85176100  0.25168200  0.93957800  1
  O  O49  1  0.36285800  0.27008600  0.42998000  1
