# generated using pymatgen
data_LiTi3O6
_symmetry_space_group_name_H-M   'P 1'
_cell_length_a   5.59533000
_cell_length_b   9.24734400
_cell_length_c   16.74971000
_cell_angle_alpha   90.00000000
_cell_angle_beta   90.00000000
_cell_angle_gamma   90.00000000
_symmetry_Int_Tables_number   1
_chemical_formula_structural   LiTi3O6
_chemical_formula_sum   'Li8 Ti24 O48'
_cell_volume   866.66251167
_cell_formula_units_Z   8
loop_
 _symmetry_equiv_pos_site_id
 _symmetry_equiv_pos_as_xyz
  1  'x, y, z'
loop_
 _atom_site_type_symbol
 _atom_site_label
 _atom_site_symmetry_multiplicity
 _atom_site_fract_x
 _atom_site_fract_y
 _atom_site_fract_z
 _atom_site_occupancy
  Li  Li0  1  0.50000000  0.00000000  0.00000000  1
  Li  Li1  1  0.75000000  0.25000000  0.25000000  1
  Li  Li2  1  0.50000000  0.50000000  0.50000000  1
  Li  Li3  1  0.75000000  0.75000000  0.75000000  1
  Li  Li4  1  0.00000000  0.00000000  0.50000000  1
  Li  Li5  1  0.25000000  0.25000000  0.75000000  1
  Li  Li6  1  0.00000000  0.50000000  0.00000000  1
  Li  Li7  1  0.25000000  0.75000000  0.25000000  1
  Ti  Ti8  1  0.75000000  0.25000000  0.08104400  1
  Ti  Ti9  1  0.50000000  0.00000000  0.16895600  1
  Ti  Ti10  1  0.00000000  0.00000000  0.00000000  1
  Ti  Ti11  1  0.75000000  0.25000000  0.41895600  1
  Ti  Ti12  1  0.00000000  0.00000000  0.33104400  1
  Ti  Ti13  1  0.75000000  0.75000000  0.25000000  1
  Ti  Ti14  1  0.75000000  0.75000000  0.58104400  1
  Ti  Ti15  1  0.50000000  0.50000000  0.66895600  1
  Ti  Ti16  1  0.00000000  0.50000000  0.50000000  1
  Ti  Ti17  1  0.75000000  0.75000000  0.91895600  1
  Ti  Ti18  1  0.00000000  0.50000000  0.83104400  1
  Ti  Ti19  1  0.75000000  0.25000000  0.75000000  1
  Ti  Ti20  1  0.25000000  0.25000000  0.58104400  1
  Ti  Ti21  1  0.00000000  0.00000000  0.66895600  1
  Ti  Ti22  1  0.50000000  0.00000000  0.50000000  1
  Ti  Ti23  1  0.25000000  0.25000000  0.91895600  1
  Ti  Ti24  1  0.50000000  0.00000000  0.83104400  1
  Ti  Ti25  1  0.25000000  0.75000000  0.75000000  1
  Ti  Ti26  1  0.25000000  0.75000000  0.08104400  1
  Ti  Ti27  1  0.00000000  0.50000000  0.16895600  1
  Ti  Ti28  1  0.50000000  0.50000000  0.00000000  1
  Ti  Ti29  1  0.25000000  0.75000000  0.41895600  1
  Ti  Ti30  1  0.50000000  0.50000000  0.33104400  1
  Ti  Ti31  1  0.25000000  0.25000000  0.25000000  1
  O  O32  1  0.49283250  0.78472400  0.16901650  1
  O  O33  1  0.50716750  0.21527600  0.16901650  1
  O  O34  1  0.25716750  0.96527600  0.08098350  1
  O  O35  1  0.50000000  0.71835200  0.00000000  1
  O  O36  1  0.74283250  0.03472400  0.08098350  1
  O  O37  1  0.75716750  0.03472400  0.41901650  1
  O  O38  1  0.00716750  0.78472400  0.33098350  1
  O  O39  1  0.50000000  0.28164800  0.00000000  1
  O  O40  1  0.24283250  0.96527600  0.41901650  1
  O  O41  1  0.75000000  0.96835200  0.25000000  1
  O  O42  1  0.99283250  0.21527600  0.33098350  1
  O  O43  1  0.75000000  0.53164800  0.25000000  1
  O  O44  1  0.49283250  0.28472400  0.66901650  1
  O  O45  1  0.50716750  0.71527600  0.66901650  1
  O  O46  1  0.25716750  0.46527600  0.58098350  1
  O  O47  1  0.50000000  0.21835200  0.50000000  1
  O  O48  1  0.74283250  0.53472400  0.58098350  1
  O  O49  1  0.75716750  0.53472400  0.91901650  1
  O  O50  1  0.00716750  0.28472400  0.83098350  1
  O  O51  1  0.50000000  0.78164800  0.50000000  1
  O  O52  1  0.24283250  0.46527600  0.91901650  1
  O  O53  1  0.75000000  0.46835200  0.75000000  1
  O  O54  1  0.99283250  0.71527600  0.83098350  1
  O  O55  1  0.75000000  0.03164800  0.75000000  1
  O  O56  1  0.99283250  0.78472400  0.66901650  1
  O  O57  1  0.00716750  0.21527600  0.66901650  1
  O  O58  1  0.75716750  0.96527600  0.58098350  1
  O  O59  1  0.00000000  0.71835200  0.50000000  1
  O  O60  1  0.24283250  0.03472400  0.58098350  1
  O  O61  1  0.25716750  0.03472400  0.91901650  1
  O  O62  1  0.50716750  0.78472400  0.83098350  1
  O  O63  1  0.00000000  0.28164800  0.50000000  1
  O  O64  1  0.74283250  0.96527600  0.91901650  1
  O  O65  1  0.25000000  0.96835200  0.75000000  1
  O  O66  1  0.49283250  0.21527600  0.83098350  1
  O  O67  1  0.25000000  0.53164800  0.75000000  1
  O  O68  1  0.99283250  0.28472400  0.16901650  1
  O  O69  1  0.00716750  0.71527600  0.16901650  1
  O  O70  1  0.75716750  0.46527600  0.08098350  1
  O  O71  1  0.00000000  0.21835200  0.00000000  1
  O  O72  1  0.24283250  0.53472400  0.08098350  1
  O  O73  1  0.25716750  0.53472400  0.41901650  1
  O  O74  1  0.50716750  0.28472400  0.33098350  1
  O  O75  1  0.00000000  0.78164800  0.00000000  1
  O  O76  1  0.74283250  0.46527600  0.41901650  1
  O  O77  1  0.25000000  0.46835200  0.25000000  1
  O  O78  1  0.49283250  0.71527600  0.33098350  1
  O  O79  1  0.25000000  0.03164800  0.25000000  1
