# generated using pymatgen
data_Li8Ti15O32
_symmetry_space_group_name_H-M   'P 1'
_cell_length_a   5.97843020
_cell_length_b   5.97843020
_cell_length_c   58.55019279
_cell_angle_alpha   90.00000000
_cell_angle_beta   90.00000000
_cell_angle_gamma   120.00000000
_symmetry_Int_Tables_number   1
_chemical_formula_structural   Li8Ti15O32
_chemical_formula_sum   'Li24 Ti45 O96'
_cell_volume   1812.31333817
_cell_formula_units_Z   3
loop_
 _symmetry_equiv_pos_site_id
 _symmetry_equiv_pos_as_xyz
  1  'x, y, z'
loop_
 _atom_site_type_symbol
 _atom_site_label
 _atom_site_symmetry_multiplicity
 _atom_site_fract_x
 _atom_site_fract_y
 _atom_site_fract_z
 _atom_site_occupancy
  Li  Li0  1  0.33333333  0.66666667  0.22880867  1
  Li  Li1  1  0.00000000  0.00000000  0.31280200  1
  Li  Li2  1  0.00000000  0.00000000  0.25001200  1
  Li  Li3  1  0.66666667  0.33333333  0.14529433  1
  Li  Li4  1  0.00000000  0.00000000  0.15619200  1
  Li  Li5  1  0.66666667  0.33333333  0.08380933  1
  Li  Li6  1  0.33333333  0.66666667  0.16713867  1
  Li  Li7  1  0.00000000  0.00000000  0.06202200  1
  Li  Li8  1  0.00000000  0.00000000  0.56214200  1
  Li  Li9  1  0.66666667  0.33333333  0.64613533  1
  Li  Li10  1  0.66666667  0.33333333  0.58334533  1
  Li  Li11  1  0.33333333  0.66666667  0.47862767  1
  Li  Li12  1  0.66666667  0.33333333  0.48952533  1
  Li  Li13  1  0.33333333  0.66666667  0.41714267  1
  Li  Li14  1  0.00000000  0.00000000  0.50047200  1
  Li  Li15  1  0.66666667  0.33333333  0.39535533  1
  Li  Li16  1  0.66666667  0.33333333  0.89547533  1
  Li  Li17  1  0.33333333  0.66666667  0.97946867  1
  Li  Li18  1  0.33333333  0.66666667  0.91667867  1
  Li  Li19  1  0.00000000  0.00000000  0.81196100  1
  Li  Li20  1  0.33333333  0.66666667  0.82285867  1
  Li  Li21  1  0.00000000  0.00000000  0.75047600  1
  Li  Li22  1  0.66666667  0.33333333  0.83380533  1
  Li  Li23  1  0.33333333  0.66666667  0.72868867  1
  Ti  Ti24  1  0.50069167  0.49930833  0.28143233  1
  Ti  Ti25  1  0.33333333  0.66666667  0.32356767  1
  Ti  Ti26  1  0.99861667  0.49930833  0.28143233  1
  Ti  Ti27  1  0.50069167  0.00138333  0.28143233  1
  Ti  Ti28  1  0.66666667  0.33333333  0.23894233  1
  Ti  Ti29  1  0.83676033  0.67352067  0.19680967  1
  Ti  Ti30  1  0.32647933  0.16323967  0.19680967  1
  Ti  Ti31  1  0.67337067  0.83668533  0.11562733  1
  Ti  Ti32  1  0.16331467  0.83668533  0.11562733  1
  Ti  Ti33  1  0.83676033  0.16323967  0.19680967  1
  Ti  Ti34  1  0.16331467  0.32662933  0.11562733  1
  Ti  Ti35  1  0.50108100  0.00216200  0.03100900  1
  Ti  Ti36  1  0.50108100  0.49891900  0.03100900  1
  Ti  Ti37  1  0.33333333  0.66666667  0.07331867  1
  Ti  Ti38  1  0.99783800  0.49891900  0.03100900  1
  Ti  Ti39  1  0.16735833  0.83264167  0.61476567  1
  Ti  Ti40  1  0.00000000  0.00000000  0.65690100  1
  Ti  Ti41  1  0.66528333  0.83264167  0.61476567  1
  Ti  Ti42  1  0.16735833  0.33471667  0.61476567  1
  Ti  Ti43  1  0.33333333  0.66666667  0.57227567  1
  Ti  Ti44  1  0.50342700  0.00685400  0.53014300  1
  Ti  Ti45  1  0.99314600  0.49657300  0.53014300  1
  Ti  Ti46  1  0.34003733  0.17001867  0.44896067  1
  Ti  Ti47  1  0.82998133  0.17001867  0.44896067  1
  Ti  Ti48  1  0.50342700  0.49657300  0.53014300  1
  Ti  Ti49  1  0.82998133  0.65996267  0.44896067  1
  Ti  Ti50  1  0.16774767  0.33549533  0.36434233  1
  Ti  Ti51  1  0.16774767  0.83225233  0.36434233  1
  Ti  Ti52  1  0.00000000  0.00000000  0.40665200  1
  Ti  Ti53  1  0.66450467  0.83225233  0.36434233  1
  Ti  Ti54  1  0.83402500  0.16597500  0.94809900  1
  Ti  Ti55  1  0.66666667  0.33333333  0.99023433  1
  Ti  Ti56  1  0.33195000  0.16597500  0.94809900  1
  Ti  Ti57  1  0.83402500  0.66805000  0.94809900  1
  Ti  Ti58  1  0.00000000  0.00000000  0.90560900  1
  Ti  Ti59  1  0.17009367  0.34018733  0.86347633  1
  Ti  Ti60  1  0.65981267  0.82990633  0.86347633  1
  Ti  Ti61  1  0.00670400  0.50335200  0.78229400  1
  Ti  Ti62  1  0.49664800  0.50335200  0.78229400  1
  Ti  Ti63  1  0.17009367  0.82990633  0.86347633  1
  Ti  Ti64  1  0.49664800  0.99329600  0.78229400  1
  Ti  Ti65  1  0.83441433  0.66882867  0.69767567  1
  Ti  Ti66  1  0.83441433  0.16558567  0.69767567  1
  Ti  Ti67  1  0.66666667  0.33333333  0.73998533  1
  Ti  Ti68  1  0.33117133  0.16558567  0.69767567  1
  O  O69  1  0.63294400  0.81647200  0.30088700  1
  O  O70  1  0.18352800  0.81647200  0.30088700  1
  O  O71  1  0.33333333  0.66666667  0.26351167  1
  O  O72  1  0.66666667  0.33333333  0.29791433  1
  O  O73  1  0.81665800  0.63331600  0.26123600  1
  O  O74  1  0.68986733  0.84493367  0.18003667  1
  O  O75  1  0.36668400  0.18334200  0.26123600  1
  O  O76  1  0.51882300  0.03764600  0.21779100  1
  O  O77  1  0.18352800  0.36705600  0.30088700  1
  O  O78  1  0.84499100  0.15500900  0.13242500  1
  O  O79  1  0.66666667  0.33333333  0.17989733  1
  O  O80  1  0.51882300  0.48117700  0.21779100  1
  O  O81  1  0.00000000  0.00000000  0.21567400  1
  O  O82  1  0.81665800  0.18334200  0.26123600  1
  O  O83  1  0.15506633  0.84493367  0.18003667  1
  O  O84  1  0.48106767  0.96213533  0.09472333  1
  O  O85  1  0.15506633  0.31013267  0.18003667  1
  O  O86  1  0.84499100  0.68998200  0.13242500  1
  O  O87  1  0.96235400  0.48117700  0.21779100  1
  O  O88  1  0.31001800  0.15500900  0.13242500  1
  O  O89  1  0.00000000  0.00000000  0.09677800  1
  O  O90  1  0.48106767  0.51893233  0.09472333  1
  O  O91  1  0.33333333  0.66666667  0.13259467  1
  O  O92  1  0.66666667  0.33333333  0.04934333  1
  O  O93  1  0.81305800  0.18694200  0.01190700  1
  O  O94  1  0.37388400  0.18694200  0.01190700  1
  O  O95  1  0.03786467  0.51893233  0.09472333  1
  O  O96  1  0.81305800  0.62611600  0.01190700  1
  O  O97  1  0.63154933  0.81577467  0.05121967  1
  O  O98  1  0.18422533  0.36845067  0.05121967  1
  O  O99  1  0.18422533  0.81577467  0.05121967  1
  O  O100  1  0.33333333  0.66666667  0.01369567  1
  O  O101  1  0.29961067  0.14980533  0.63422033  1
  O  O102  1  0.85019467  0.14980533  0.63422033  1
  O  O103  1  0.00000000  0.00000000  0.59684500  1
  O  O104  1  0.33333333  0.66666667  0.63124767  1
  O  O105  1  0.48332467  0.96664933  0.59456933  1
  O  O106  1  0.35653400  0.17826700  0.51337000  1
  O  O107  1  0.03335067  0.51667533  0.59456933  1
  O  O108  1  0.18548967  0.37097933  0.55112433  1
  O  O109  1  0.85019467  0.70038933  0.63422033  1
  O  O110  1  0.51165767  0.48834233  0.46575833  1
  O  O111  1  0.33333333  0.66666667  0.51323067  1
  O  O112  1  0.18548967  0.81451033  0.55112433  1
  O  O113  1  0.66666667  0.33333333  0.54900733  1
  O  O114  1  0.48332467  0.51667533  0.59456933  1
  O  O115  1  0.82173300  0.17826700  0.51337000  1
  O  O116  1  0.14773433  0.29546867  0.42805667  1
  O  O117  1  0.82173300  0.64346600  0.51337000  1
  O  O118  1  0.51165767  0.02331533  0.46575833  1
  O  O119  1  0.62902067  0.81451033  0.55112433  1
  O  O120  1  0.97668467  0.48834233  0.46575833  1
  O  O121  1  0.66666667  0.33333333  0.43011133  1
  O  O122  1  0.14773433  0.85226567  0.42805667  1
  O  O123  1  0.00000000  0.00000000  0.46592800  1
  O  O124  1  0.33333333  0.66666667  0.38267667  1
  O  O125  1  0.47972467  0.52027533  0.34524033  1
  O  O126  1  0.04055067  0.52027533  0.34524033  1
  O  O127  1  0.70453133  0.85226567  0.42805667  1
  O  O128  1  0.47972467  0.95944933  0.34524033  1
  O  O129  1  0.29821600  0.14910800  0.38455300  1
  O  O130  1  0.85089200  0.70178400  0.38455300  1
  O  O131  1  0.85089200  0.14910800  0.38455300  1
  O  O132  1  0.00000000  0.00000000  0.34702900  1
  O  O133  1  0.96627733  0.48313867  0.96755367  1
  O  O134  1  0.51686133  0.48313867  0.96755367  1
  O  O135  1  0.66666667  0.33333333  0.93017833  1
  O  O136  1  0.00000000  0.00000000  0.96458100  1
  O  O137  1  0.14999133  0.29998267  0.92790267  1
  O  O138  1  0.02320067  0.51160033  0.84670333  1
  O  O139  1  0.70001733  0.85000867  0.92790267  1
  O  O140  1  0.85215633  0.70431267  0.88445767  1
  O  O141  1  0.51686133  0.03372267  0.96755367  1
  O  O142  1  0.17832433  0.82167567  0.79909167  1
  O  O143  1  0.00000000  0.00000000  0.84656400  1
  O  O144  1  0.85215633  0.14784367  0.88445767  1
  O  O145  1  0.33333333  0.66666667  0.88234067  1
  O  O146  1  0.14999133  0.85000867  0.92790267  1
  O  O147  1  0.48839967  0.51160033  0.84670333  1
  O  O148  1  0.81440100  0.62880200  0.76139000  1
  O  O149  1  0.48839967  0.97679933  0.84670333  1
  O  O150  1  0.17832433  0.35664867  0.79909167  1
  O  O151  1  0.29568733  0.14784367  0.88445767  1
  O  O152  1  0.64335133  0.82167567  0.79909167  1
  O  O153  1  0.33333333  0.66666667  0.76344467  1
  O  O154  1  0.81440100  0.18559900  0.76139000  1
  O  O155  1  0.66666667  0.33333333  0.79926133  1
  O  O156  1  0.00000000  0.00000000  0.71601000  1
  O  O157  1  0.14639133  0.85360867  0.67857367  1
  O  O158  1  0.70721733  0.85360867  0.67857367  1
  O  O159  1  0.37119800  0.18559900  0.76139000  1
  O  O160  1  0.14639133  0.29278267  0.67857367  1
  O  O161  1  0.96488267  0.48244133  0.71788633  1
  O  O162  1  0.51755867  0.03511733  0.71788633  1
  O  O163  1  0.51755867  0.48244133  0.71788633  1
  O  O164  1  0.66666667  0.33333333  0.68036233  1
