# generated using pymatgen
data_LiV4CuO12
_symmetry_space_group_name_H-M   'P 1'
_cell_length_a   9.98999800
_cell_length_b   8.94289400
_cell_length_c   5.91961251
_cell_angle_alpha   90.00000000
_cell_angle_beta   110.70036104
_cell_angle_gamma   90.00000000
_symmetry_Int_Tables_number   1
_chemical_formula_structural   LiV4CuO12
_chemical_formula_sum   'Li2 V8 Cu2 O24'
_cell_volume   494.71324450
_cell_formula_units_Z   2
loop_
 _symmetry_equiv_pos_site_id
 _symmetry_equiv_pos_as_xyz
  1  'x, y, z'
loop_
 _atom_site_type_symbol
 _atom_site_label
 _atom_site_symmetry_multiplicity
 _atom_site_fract_x
 _atom_site_fract_y
 _atom_site_fract_z
 _atom_site_occupancy
  Li  Li0  1  0.00000000  0.08862500  0.00000000  1
  Li  Li1  1  0.50000000  0.58862500  0.00000000  1
  V  V2  1  0.20836500  0.40769900  0.99873500  1
  V  V3  1  0.20183000  0.59069300  0.48490700  1
  V  V4  1  0.79163500  0.40769900  0.00126500  1
  V  V5  1  0.79817000  0.59069300  0.51509300  1
  V  V6  1  0.70836500  0.90769900  0.99873500  1
  V  V7  1  0.70183000  0.09069300  0.48490700  1
  V  V8  1  0.29163500  0.90769900  0.00126500  1
  V  V9  1  0.29817000  0.09069300  0.51509300  1
  Cu  Cu10  1  0.00000000  0.91374100  0.50000000  1
  Cu  Cu11  1  0.50000000  0.41374100  0.50000000  1
  O  O12  1  0.39173250  0.41692050  0.14239900  1
  O  O13  1  0.15268800  0.23158000  0.97444700  1
  O  O14  1  0.38454900  0.58393300  0.57479900  1
  O  O15  1  0.13275400  0.50209000  0.19578500  1
  O  O16  1  0.84731200  0.23158000  0.02555300  1
  O  O17  1  0.14676100  0.49314100  0.69978900  1
  O  O18  1  0.86724600  0.50209000  0.80421500  1
  O  O19  1  0.14533300  0.77276000  0.46230900  1
  O  O20  1  0.85323900  0.49314100  0.30021100  1
  O  O21  1  0.60826750  0.41692050  0.85760100  1
  O  O22  1  0.85466700  0.77276000  0.53769100  1
  O  O23  1  0.61545100  0.58393300  0.42520100  1
  O  O24  1  0.89173250  0.91692050  0.14239900  1
  O  O25  1  0.65268800  0.73158000  0.97444700  1
  O  O26  1  0.88454900  0.08393300  0.57479900  1
  O  O27  1  0.63275400  0.00209000  0.19578500  1
  O  O28  1  0.34731200  0.73158000  0.02555300  1
  O  O29  1  0.64676100  0.99314100  0.69978900  1
  O  O30  1  0.36724600  0.00209000  0.80421500  1
  O  O31  1  0.64533300  0.27276000  0.46230900  1
  O  O32  1  0.35323900  0.99314100  0.30021100  1
  O  O33  1  0.10826750  0.91692050  0.85760100  1
  O  O34  1  0.35466700  0.27276000  0.53769100  1
  O  O35  1  0.11545100  0.08393300  0.42520100  1
