# generated using pymatgen
data_VBO4
_symmetry_space_group_name_H-M   'P 1'
_cell_length_a   4.88200400
_cell_length_b   4.88200400
_cell_length_c   7.34375600
_cell_angle_alpha   90.00000000
_cell_angle_beta   90.00000000
_cell_angle_gamma   90.00000000
_symmetry_Int_Tables_number   1
_chemical_formula_structural   VBO4
_chemical_formula_sum   'V2 B2 O8'
_cell_volume   175.03080920
_cell_formula_units_Z   2
loop_
 _symmetry_equiv_pos_site_id
 _symmetry_equiv_pos_as_xyz
  1  'x, y, z'
loop_
 _atom_site_type_symbol
 _atom_site_label
 _atom_site_symmetry_multiplicity
 _atom_site_fract_x
 _atom_site_fract_y
 _atom_site_fract_z
 _atom_site_occupancy
  V  V0  1  0.00000000  0.00000000  0.00000000  1
  V  V1  1  0.50000000  0.50000000  0.50000000  1
  B  B2  1  0.50000000  0.00000000  0.25000000  1
  B  B3  1  0.00000000  0.50000000  0.75000000  1
  O  O4  1  0.60076300  0.22586900  0.36468100  1
  O  O5  1  0.27413100  0.10076300  0.13531900  1
  O  O6  1  0.39923700  0.77413100  0.36468100  1
  O  O7  1  0.72586900  0.89923700  0.13531900  1
  O  O8  1  0.10076300  0.72586900  0.86468100  1
  O  O9  1  0.77413100  0.60076300  0.63531900  1
  O  O10  1  0.89923700  0.27413100  0.86468100  1
  O  O11  1  0.22586900  0.39923700  0.63531900  1
