# generated using pymatgen
data_Li4MnFe2(BO3)4
_symmetry_space_group_name_H-M   'P 1'
_cell_length_a   5.29164700
_cell_length_b   9.00665500
_cell_length_c   11.20197904
_cell_angle_alpha   90.00000000
_cell_angle_beta   117.28848478
_cell_angle_gamma   90.00000000
_symmetry_Int_Tables_number   1
_chemical_formula_structural   Li4MnFe2(BO3)4
_chemical_formula_sum   'Li8 Mn2 Fe4 B8 O24'
_cell_volume   474.47017601
_cell_formula_units_Z   2
loop_
 _symmetry_equiv_pos_site_id
 _symmetry_equiv_pos_as_xyz
  1  'x, y, z'
loop_
 _atom_site_type_symbol
 _atom_site_label
 _atom_site_symmetry_multiplicity
 _atom_site_fract_x
 _atom_site_fract_y
 _atom_site_fract_z
 _atom_site_occupancy
  Li  Li0  1  0.56568300  0.10531700  0.39764200  1
  Li  Li1  1  0.07131900  0.76471000  0.91297300  1
  Li  Li2  1  0.46308900  0.59162800  0.11224200  1
  Li  Li3  1  0.50927300  0.27059400  0.16310200  1
  Li  Li4  1  0.07131900  0.23529000  0.41297300  1
  Li  Li5  1  0.56568300  0.89468300  0.89764200  1
  Li  Li6  1  0.46308900  0.40837200  0.61224200  1
  Li  Li7  1  0.50927300  0.72940600  0.66310200  1
  Mn  Mn8  1  0.47681100  0.77777700  0.33125200  1
  Mn  Mn9  1  0.47681100  0.22222300  0.83125200  1
  Fe  Fe10  1  0.02567600  0.43549400  0.87383400  1
  Fe  Fe11  1  0.98101600  0.92641300  0.63094300  1
  Fe  Fe12  1  0.02567600  0.56450600  0.37383400  1
  Fe  Fe13  1  0.98101600  0.07358700  0.13094300  1
  B  B14  1  0.54475900  0.41952800  0.37653600  1
  B  B15  1  0.02789900  0.08435600  0.87172800  1
  B  B16  1  0.45940800  0.93290500  0.11934400  1
  B  B17  1  0.96915600  0.58995700  0.62787400  1
  B  B18  1  0.02789900  0.91564400  0.37172800  1
  B  B19  1  0.54475900  0.58047200  0.87653600  1
  B  B20  1  0.96915600  0.41004300  0.12787400  1
  B  B21  1  0.45940800  0.06709500  0.61934400  1
  O  O22  1  0.16950900  0.42497300  0.07999900  1
  O  O23  1  0.68482900  0.06538200  0.58956400  1
  O  O24  1  0.33668600  0.79954300  0.12470100  1
  O  O25  1  0.35821600  0.06649200  0.14476900  1
  O  O26  1  0.88052300  0.47246100  0.67965400  1
  O  O27  1  0.84593500  0.72894800  0.62617400  1
  O  O28  1  0.63090800  0.56154700  0.35396700  1
  O  O29  1  0.13175900  0.22596300  0.86835800  1
  O  O30  1  0.13907400  0.96151900  0.83620100  1
  O  O31  1  0.67828100  0.29768100  0.36129800  1
  O  O32  1  0.81500300  0.93116300  0.41086300  1
  O  O33  1  0.32224800  0.58762600  0.91125700  1
  O  O34  1  0.68482900  0.93461800  0.08956400  1
  O  O35  1  0.16950900  0.57502700  0.57999900  1
  O  O36  1  0.88052300  0.52753900  0.17965400  1
  O  O37  1  0.33668600  0.20045700  0.62470100  1
  O  O38  1  0.84593500  0.27105200  0.12617400  1
  O  O39  1  0.35821600  0.93350800  0.64476900  1
  O  O40  1  0.13175900  0.77403700  0.36835800  1
  O  O41  1  0.63090800  0.43845300  0.85396700  1
  O  O42  1  0.13907400  0.03848100  0.33620100  1
  O  O43  1  0.67828100  0.70231900  0.86129800  1
  O  O44  1  0.32224800  0.41237400  0.41125700  1
  O  O45  1  0.81500300  0.06883700  0.91086300  1
