# generated using pymatgen
data_DyTe3O8
_symmetry_space_group_name_H-M   'P 1'
_cell_length_a   12.54160200
_cell_length_b   5.62068800
_cell_length_c   10.53490736
_cell_angle_alpha   90.00000000
_cell_angle_beta   116.33132660
_cell_angle_gamma   90.00000000
_symmetry_Int_Tables_number   1
_chemical_formula_structural   DyTe3O8
_chemical_formula_sum   'Dy4 Te12 O32'
_cell_volume   665.57882679
_cell_formula_units_Z   4
loop_
 _symmetry_equiv_pos_site_id
 _symmetry_equiv_pos_as_xyz
  1  'x, y, z'
loop_
 _atom_site_type_symbol
 _atom_site_label
 _atom_site_symmetry_multiplicity
 _atom_site_fract_x
 _atom_site_fract_y
 _atom_site_fract_z
 _atom_site_occupancy
  Dy  Dy0  1  0.00000000  0.56080400  0.75000000  1
  Dy  Dy1  1  0.00000000  0.43919600  0.25000000  1
  Dy  Dy2  1  0.50000000  0.06080400  0.75000000  1
  Dy  Dy3  1  0.50000000  0.93919600  0.25000000  1
  Te  Te4  1  0.22052100  0.08693300  0.85728000  1
  Te  Te5  1  0.72052100  0.41306700  0.35728000  1
  Te  Te6  1  0.00000000  0.00000000  0.50000000  1
  Te  Te7  1  0.00000000  0.00000000  0.00000000  1
  Te  Te8  1  0.27947900  0.58693300  0.64272000  1
  Te  Te9  1  0.77947900  0.91306700  0.14272000  1
  Te  Te10  1  0.72052100  0.58693300  0.85728000  1
  Te  Te11  1  0.22052100  0.91306700  0.35728000  1
  Te  Te12  1  0.50000000  0.50000000  0.50000000  1
  Te  Te13  1  0.50000000  0.50000000  0.00000000  1
  Te  Te14  1  0.77947900  0.08693300  0.64272000  1
  Te  Te15  1  0.27947900  0.41306700  0.14272000  1
  O  O16  1  0.10546400  0.88915900  0.90528500  1
  O  O17  1  0.10546400  0.11084100  0.40528500  1
  O  O18  1  0.38718100  0.24751400  0.86794600  1
  O  O19  1  0.82230300  0.39246600  0.58516100  1
  O  O20  1  0.91572900  0.23735400  0.82978900  1
  O  O21  1  0.88718100  0.25248600  0.36794600  1
  O  O22  1  0.82230300  0.60753400  0.08516100  1
  O  O23  1  0.91572900  0.76264600  0.32978900  1
  O  O24  1  0.08427100  0.23735400  0.67021100  1
  O  O25  1  0.17769700  0.39246600  0.91483900  1
  O  O26  1  0.11281900  0.74751400  0.63205400  1
  O  O27  1  0.08427100  0.76264600  0.17021100  1
  O  O28  1  0.17769700  0.60753400  0.41483900  1
  O  O29  1  0.61281900  0.75248600  0.13205400  1
  O  O30  1  0.89453600  0.88915900  0.59471500  1
  O  O31  1  0.89453600  0.11084100  0.09471500  1
  O  O32  1  0.60546400  0.38915900  0.90528500  1
  O  O33  1  0.60546400  0.61084100  0.40528500  1
  O  O34  1  0.88718100  0.74751400  0.86794600  1
  O  O35  1  0.32230300  0.89246600  0.58516100  1
  O  O36  1  0.41572900  0.73735400  0.82978900  1
  O  O37  1  0.38718100  0.75248600  0.36794600  1
  O  O38  1  0.32230300  0.10753400  0.08516100  1
  O  O39  1  0.41572900  0.26264600  0.32978900  1
  O  O40  1  0.58427100  0.73735400  0.67021100  1
  O  O41  1  0.67769700  0.89246600  0.91483900  1
  O  O42  1  0.61281900  0.24751400  0.63205400  1
  O  O43  1  0.58427100  0.26264600  0.17021100  1
  O  O44  1  0.67769700  0.10753400  0.41483900  1
  O  O45  1  0.11281900  0.25248600  0.13205400  1
  O  O46  1  0.39453600  0.38915900  0.59471500  1
  O  O47  1  0.39453600  0.61084100  0.09471500  1
