# generated using pymatgen
data_Li2VOF5
_symmetry_space_group_name_H-M   'P 1'
_cell_length_a   6.14081600
_cell_length_b   6.38744800
_cell_length_c   6.41527200
_cell_angle_alpha   90.00000000
_cell_angle_beta   90.00000000
_cell_angle_gamma   90.00000000
_symmetry_Int_Tables_number   1
_chemical_formula_structural   Li2VOF5
_chemical_formula_sum   'Li4 V2 O2 F10'
_cell_volume   251.63354553
_cell_formula_units_Z   2
loop_
 _symmetry_equiv_pos_site_id
 _symmetry_equiv_pos_as_xyz
  1  'x, y, z'
loop_
 _atom_site_type_symbol
 _atom_site_label
 _atom_site_symmetry_multiplicity
 _atom_site_fract_x
 _atom_site_fract_y
 _atom_site_fract_z
 _atom_site_occupancy
  Li  Li0  1  0.23652500  0.03328300  0.50000000  1
  Li  Li1  1  0.26347500  0.53328300  0.00000000  1
  Li  Li2  1  0.73652500  0.53328300  0.00000000  1
  Li  Li3  1  0.76347500  0.03328300  0.50000000  1
  V  V4  1  0.00000000  0.00102900  0.00000000  1
  V  V5  1  0.50000000  0.50102900  0.50000000  1
  O  O6  1  0.00000000  0.25641800  0.00000000  1
  O  O7  1  0.50000000  0.75641800  0.50000000  1
  F  F8  1  0.00000000  0.97787900  0.29862800  1
  F  F9  1  0.00000000  0.97787900  0.70137200  1
  F  F10  1  0.28838200  0.94459800  0.00000000  1
  F  F11  1  0.71161800  0.94459800  0.00000000  1
  F  F12  1  0.00000000  0.67116300  0.00000000  1
  F  F13  1  0.50000000  0.47787900  0.79862800  1
  F  F14  1  0.50000000  0.47787900  0.20137200  1
  F  F15  1  0.78838200  0.44459800  0.50000000  1
  F  F16  1  0.21161800  0.44459800  0.50000000  1
  F  F17  1  0.50000000  0.17116300  0.50000000  1
