# generated using pymatgen
data_Fe(SO4)2
_symmetry_space_group_name_H-M   'P 1'
_cell_length_a   8.36016826
_cell_length_b   8.36016826
_cell_length_c   22.59622146
_cell_angle_alpha   90.00000000
_cell_angle_beta   90.00000000
_cell_angle_gamma   120.00000000
_symmetry_Int_Tables_number   1
_chemical_formula_structural   Fe(SO4)2
_chemical_formula_sum   'Fe9 S18 O72'
_cell_volume   1367.71777389
_cell_formula_units_Z   9
loop_
 _symmetry_equiv_pos_site_id
 _symmetry_equiv_pos_as_xyz
  1  'x, y, z'
loop_
 _atom_site_type_symbol
 _atom_site_label
 _atom_site_symmetry_multiplicity
 _atom_site_fract_x
 _atom_site_fract_y
 _atom_site_fract_z
 _atom_site_occupancy
  Fe  Fe0  1  0.00000000  0.00000000  0.14884100  1
  Fe  Fe1  1  0.33333333  0.66666667  0.31057967  1
  Fe  Fe2  1  0.66666667  0.33333333  0.18266733  1
  Fe  Fe3  1  0.66666667  0.33333333  0.48217433  1
  Fe  Fe4  1  0.00000000  0.00000000  0.64391300  1
  Fe  Fe5  1  0.33333333  0.66666667  0.51600067  1
  Fe  Fe6  1  0.33333333  0.66666667  0.81550767  1
  Fe  Fe7  1  0.66666667  0.33333333  0.97724633  1
  Fe  Fe8  1  0.00000000  0.00000000  0.84933400  1
  S  S9  1  0.37461100  0.04275900  0.08422800  1
  S  S10  1  0.66814800  0.62538900  0.08422800  1
  S  S11  1  0.95724100  0.33185200  0.08422800  1
  S  S12  1  0.70822133  0.00073067  0.24943167  1
  S  S13  1  0.99926933  0.70749067  0.24943167  1
  S  S14  1  0.29250933  0.29177867  0.24943167  1
  S  S15  1  0.04127767  0.37609233  0.41756133  1
  S  S16  1  0.33481467  0.95872233  0.41756133  1
  S  S17  1  0.62390767  0.66518533  0.41756133  1
  S  S18  1  0.37488800  0.33406400  0.58276500  1
  S  S19  1  0.66593600  0.04082400  0.58276500  1
  S  S20  1  0.95917600  0.62511200  0.58276500  1
  S  S21  1  0.70794433  0.70942567  0.75089467  1
  S  S22  1  0.00148133  0.29205567  0.75089467  1
  S  S23  1  0.29057433  0.99851867  0.75089467  1
  S  S24  1  0.04155467  0.66739733  0.91609833  1
  S  S25  1  0.33260267  0.37415733  0.91609833  1
  S  S26  1  0.62584267  0.95844533  0.91609833  1
  O  O27  1  0.20841400  0.19320500  0.30438800  1
  O  O28  1  0.80679500  0.01520900  0.30438800  1
  O  O29  1  0.23145800  0.09322800  0.09943600  1
  O  O30  1  0.98479100  0.79158600  0.30438800  1
  O  O31  1  0.52089967  0.10999833  0.13191633  1
  O  O32  1  0.29831967  0.84406233  0.08161833  1
  O  O33  1  0.54574267  0.70168033  0.08161833  1
  O  O34  1  0.86177000  0.76854200  0.09943600  1
  O  O35  1  0.15593767  0.45425733  0.08161833  1
  O  O36  1  0.74463133  0.18914667  0.23320367  1
  O  O37  1  0.77401367  0.92552033  0.20083533  1
  O  O38  1  0.07447967  0.84849333  0.20083533  1
  O  O39  1  0.58909867  0.47910033  0.13191633  1
  O  O40  1  0.89000167  0.41090133  0.13191633  1
  O  O41  1  0.90677200  0.13823000  0.09943600  1
  O  O42  1  0.50487867  0.87388333  0.25487533  1
  O  O43  1  0.81085333  0.55548467  0.23320367  1
  O  O44  1  0.12611667  0.63099533  0.25487533  1
  O  O45  1  0.36900467  0.49512133  0.25487533  1
  O  O46  1  0.15150667  0.22598633  0.20083533  1
  O  O47  1  0.67630633  0.53865667  0.02769167  1
  O  O48  1  0.44451533  0.25536867  0.23320367  1
  O  O49  1  0.86235033  0.32369367  0.02769167  1
  O  O50  1  0.46134333  0.13764967  0.02769167  1
  O  O51  1  0.87508067  0.52653833  0.63772133  1
  O  O52  1  0.47346167  0.34854233  0.63772133  1
  O  O53  1  0.89812467  0.42656133  0.43276933  1
  O  O54  1  0.65145767  0.12491933  0.63772133  1
  O  O55  1  0.18756633  0.44333167  0.46524967  1
  O  O56  1  0.96498633  0.17739567  0.41495167  1
  O  O57  1  0.21240933  0.03501367  0.41495167  1
  O  O58  1  0.52843667  0.10187533  0.43276933  1
  O  O59  1  0.82260433  0.78759067  0.41495167  1
  O  O60  1  0.41129800  0.52248000  0.56653700  1
  O  O61  1  0.44068033  0.25885367  0.53416867  1
  O  O62  1  0.74114633  0.18182667  0.53416867  1
  O  O63  1  0.25576533  0.81243367  0.46524967  1
  O  O64  1  0.55666833  0.74423467  0.46524967  1
  O  O65  1  0.57343867  0.47156333  0.43276933  1
  O  O66  1  0.17154533  0.20721667  0.58820867  1
  O  O67  1  0.47752000  0.88881800  0.56653700  1
  O  O68  1  0.79278333  0.96432867  0.58820867  1
  O  O69  1  0.03567133  0.82845467  0.58820867  1
  O  O70  1  0.81817333  0.55931967  0.53416867  1
  O  O71  1  0.34297300  0.87199000  0.36102500  1
  O  O72  1  0.11118200  0.58870200  0.56653700  1
  O  O73  1  0.52901700  0.65702700  0.36102500  1
  O  O74  1  0.12801000  0.47098300  0.36102500  1
  O  O75  1  0.54174733  0.85987167  0.97105467  1
  O  O76  1  0.14012833  0.68187567  0.97105467  1
  O  O77  1  0.56479133  0.75989467  0.76610267  1
  O  O78  1  0.31812433  0.45825267  0.97105467  1
  O  O79  1  0.85423300  0.77666500  0.79858300  1
  O  O80  1  0.63165300  0.51072900  0.74828500  1
  O  O81  1  0.87907600  0.36834700  0.74828500  1
  O  O82  1  0.19510333  0.43520867  0.76610267  1
  O  O83  1  0.48927100  0.12092400  0.74828500  1
  O  O84  1  0.07796467  0.85581333  0.89987033  1
  O  O85  1  0.10734700  0.59218700  0.86750200  1
  O  O86  1  0.40781300  0.51516000  0.86750200  1
  O  O87  1  0.92243200  0.14576700  0.79858300  1
  O  O88  1  0.22333500  0.07756800  0.79858300  1
  O  O89  1  0.24010533  0.80489667  0.76610267  1
  O  O90  1  0.83821200  0.54055000  0.92154200  1
  O  O91  1  0.14418667  0.22215133  0.89987033  1
  O  O92  1  0.45945000  0.29766200  0.92154200  1
  O  O93  1  0.70233800  0.16178800  0.92154200  1
  O  O94  1  0.48484000  0.89265300  0.86750200  1
  O  O95  1  0.00963967  0.20532333  0.69435833  1
  O  O96  1  0.77784867  0.92203533  0.89987033  1
  O  O97  1  0.19568367  0.99036033  0.69435833  1
  O  O98  1  0.79467667  0.80431633  0.69435833  1
