# generated using pymatgen
data_Li2VFe(P2O7)2
_symmetry_space_group_name_H-M   'P 1'
_cell_length_a   7.15309800
_cell_length_b   8.25641000
_cell_length_c   9.76682966
_cell_angle_alpha   90.00000000
_cell_angle_beta   111.36878052
_cell_angle_gamma   90.00000000
_symmetry_Int_Tables_number   1
_chemical_formula_structural   Li2VFe(P2O7)2
_chemical_formula_sum   'Li4 V2 Fe2 P8 O28'
_cell_volume   537.16464496
_cell_formula_units_Z   2
loop_
 _symmetry_equiv_pos_site_id
 _symmetry_equiv_pos_as_xyz
  1  'x, y, z'
loop_
 _atom_site_type_symbol
 _atom_site_label
 _atom_site_symmetry_multiplicity
 _atom_site_fract_x
 _atom_site_fract_y
 _atom_site_fract_z
 _atom_site_occupancy
  Li  Li0  1  0.67633400  0.36288600  0.49999400  1
  Li  Li1  1  0.32366600  0.86288600  0.50000600  1
  Li  Li2  1  0.67506800  0.36270800  0.99942000  1
  Li  Li3  1  0.32493200  0.86270800  0.00058000  1
  V  V4  1  0.72827100  0.00030600  0.50607800  1
  V  V5  1  0.27172900  0.50030600  0.49392200  1
  Fe  Fe6  1  0.73267100  0.99906600  0.00795700  1
  Fe  Fe7  1  0.26732900  0.49906600  0.99204300  1
  P  P8  1  0.91331900  0.78351000  0.31317900  1
  P  P9  1  0.52155900  0.68050600  0.31042700  1
  P  P10  1  0.47844100  0.18050600  0.68957300  1
  P  P11  1  0.91469300  0.78393400  0.81358900  1
  P  P12  1  0.08668100  0.28351000  0.68682100  1
  P  P13  1  0.52265100  0.68011400  0.81139900  1
  P  P14  1  0.47734900  0.18011400  0.18860100  1
  P  P15  1  0.08530700  0.28393400  0.18641100  1
  O  O16  1  0.75302100  0.65261600  0.32944600  1
  O  O17  1  0.91694700  0.93312100  0.40724600  1
  O  O18  1  0.60479200  0.17810000  0.35372000  1
  O  O19  1  0.50635000  0.84362700  0.38014400  1
  O  O20  1  0.48201200  0.53845700  0.39769000  1
  O  O21  1  0.14731600  0.32332200  0.34868000  1
  O  O22  1  0.11423100  0.69604900  0.37378500  1
  O  O23  1  0.88576900  0.19604900  0.62621500  1
  O  O24  1  0.85268400  0.82332200  0.65132000  1
  O  O25  1  0.51798800  0.03845700  0.60231000  1
  O  O26  1  0.49365000  0.34362700  0.61985600  1
  O  O27  1  0.39520800  0.67810000  0.64628000  1
  O  O28  1  0.08305300  0.43312100  0.59275400  1
  O  O29  1  0.24697900  0.15261600  0.67055400  1
  O  O30  1  0.75335200  0.65367200  0.82840500  1
  O  O31  1  0.91665000  0.93316800  0.90781500  1
  O  O32  1  0.60610000  0.17833100  0.85401300  1
  O  O33  1  0.50782000  0.84516500  0.87954100  1
  O  O34  1  0.48256100  0.53772200  0.89755000  1
  O  O35  1  0.14696100  0.32526000  0.84888100  1
  O  O36  1  0.11589300  0.69394000  0.87333100  1
  O  O37  1  0.88410700  0.19394000  0.12666900  1
  O  O38  1  0.85303900  0.82526000  0.15111900  1
  O  O39  1  0.51743900  0.03772200  0.10245000  1
  O  O40  1  0.49218000  0.34516500  0.12045900  1
  O  O41  1  0.39390000  0.67833100  0.14598700  1
  O  O42  1  0.08335000  0.43316800  0.09218500  1
  O  O43  1  0.24664800  0.15367200  0.17159500  1
