# generated using pymatgen
data_Li7(NiO2)10
_symmetry_space_group_name_H-M   'P 1'
_cell_length_a   9.68711077
_cell_length_b   14.19169054
_cell_length_c   4.97400855
_cell_angle_alpha   90.00000000
_cell_angle_beta   99.51852894
_cell_angle_gamma   90.00000000
_symmetry_Int_Tables_number   1
_chemical_formula_structural   Li7(NiO2)10
_chemical_formula_sum   'Li14 Ni20 O40'
_cell_volume   674.39461279
_cell_formula_units_Z   2
loop_
 _symmetry_equiv_pos_site_id
 _symmetry_equiv_pos_as_xyz
  1  'x, y, z'
loop_
 _atom_site_type_symbol
 _atom_site_label
 _atom_site_symmetry_multiplicity
 _atom_site_fract_x
 _atom_site_fract_y
 _atom_site_fract_z
 _atom_site_occupancy
  Li  Li0  1  0.00000000  0.69989687  0.50000000  1
  Li  Li1  1  0.00000000  0.89372818  0.50000000  1
  Li  Li2  1  0.00000000  0.10627182  0.50000000  1
  Li  Li3  1  0.50000000  0.80010313  0.50000000  1
  Li  Li4  1  0.00000000  0.00000000  0.00000000  1
  Li  Li5  1  0.50000000  0.90067134  0.00000000  1
  Li  Li6  1  0.50000000  0.09932866  0.00000000  1
  Li  Li7  1  0.50000000  0.19989687  0.50000000  1
  Li  Li8  1  0.50000000  0.39372818  0.50000000  1
  Li  Li9  1  0.50000000  0.60627182  0.50000000  1
  Li  Li10  1  0.00000000  0.30010313  0.50000000  1
  Li  Li11  1  0.50000000  0.50000000  0.00000000  1
  Li  Li12  1  0.00000000  0.40067134  0.00000000  1
  Li  Li13  1  0.00000000  0.59932866  0.00000000  1
  Ni  Ni14  1  0.74747328  0.59960671  0.25224785  1
  Ni  Ni15  1  0.75027765  0.80078128  0.24444812  1
  Ni  Ni16  1  0.74881930  0.00000000  0.24751356  1
  Ni  Ni17  1  0.75027765  0.19921872  0.24444812  1
  Ni  Ni18  1  0.24747328  0.90039329  0.25224785  1
  Ni  Ni19  1  0.74972235  0.69921872  0.75555188  1
  Ni  Ni20  1  0.75252672  0.90039329  0.74775215  1
  Ni  Ni21  1  0.75252672  0.09960671  0.74775215  1
  Ni  Ni22  1  0.74972235  0.30078128  0.75555188  1
  Ni  Ni23  1  0.75118070  0.50000000  0.75248644  1
  Ni  Ni24  1  0.24747328  0.09960671  0.25224785  1
  Ni  Ni25  1  0.25027765  0.30078128  0.24444812  1
  Ni  Ni26  1  0.24881930  0.50000000  0.24751356  1
  Ni  Ni27  1  0.25027765  0.69921872  0.24444812  1
  Ni  Ni28  1  0.74747328  0.40039329  0.25224785  1
  Ni  Ni29  1  0.24972235  0.19921872  0.75555188  1
  Ni  Ni30  1  0.25252672  0.40039329  0.74775215  1
  Ni  Ni31  1  0.25252672  0.59960671  0.74775215  1
  Ni  Ni32  1  0.24972235  0.80078128  0.75555188  1
  Ni  Ni33  1  0.25118070  0.00000000  0.75248644  1
  O  O34  1  0.14299377  0.80248471  0.40448716  1
  O  O35  1  0.14790315  0.00000000  0.38967290  1
  O  O36  1  0.64061239  0.10153294  0.35457448  1
  O  O37  1  0.64299377  0.69751529  0.40448716  1
  O  O38  1  0.64061239  0.89846706  0.35457448  1
  O  O39  1  0.85209685  0.00000000  0.61032710  1
  O  O40  1  0.85700623  0.19751529  0.59551284  1
  O  O41  1  0.85938761  0.60153294  0.64542552  1
  O  O42  1  0.85700623  0.80248471  0.59551284  1
  O  O43  1  0.35938761  0.89846706  0.64542552  1
  O  O44  1  0.13639799  0.90881132  0.86322114  1
  O  O45  1  0.64870645  0.19601947  0.87624049  1
  O  O46  1  0.63639799  0.59118868  0.86322114  1
  O  O47  1  0.64705727  0.00000000  0.89937482  1
  O  O48  1  0.64870645  0.80398053  0.87624049  1
  O  O49  1  0.86360201  0.09118868  0.13677886  1
  O  O50  1  0.86360201  0.90881132  0.13677886  1
  O  O51  1  0.85129355  0.69601947  0.12375951  1
  O  O52  1  0.35294273  0.00000000  0.10062518  1
  O  O53  1  0.35129355  0.80398053  0.12375951  1
  O  O54  1  0.64299377  0.30248471  0.40448716  1
  O  O55  1  0.64790315  0.50000000  0.38967290  1
  O  O56  1  0.14061239  0.60153294  0.35457448  1
  O  O57  1  0.14299377  0.19751529  0.40448716  1
  O  O58  1  0.14061239  0.39846706  0.35457448  1
  O  O59  1  0.35209685  0.50000000  0.61032710  1
  O  O60  1  0.35700623  0.69751529  0.59551284  1
  O  O61  1  0.35938761  0.10153294  0.64542552  1
  O  O62  1  0.35700623  0.30248471  0.59551284  1
  O  O63  1  0.85938761  0.39846706  0.64542552  1
  O  O64  1  0.63639799  0.40881132  0.86322114  1
  O  O65  1  0.14870645  0.69601947  0.87624049  1
  O  O66  1  0.13639799  0.09118868  0.86322114  1
  O  O67  1  0.14705727  0.50000000  0.89937482  1
  O  O68  1  0.14870645  0.30398053  0.87624049  1
  O  O69  1  0.36360201  0.59118868  0.13677886  1
  O  O70  1  0.36360201  0.40881132  0.13677886  1
  O  O71  1  0.35129355  0.19601947  0.12375951  1
  O  O72  1  0.85294273  0.50000000  0.10062518  1
  O  O73  1  0.85129355  0.30398053  0.12375951  1
