# generated using pymatgen
data_LiMnPO4
_symmetry_space_group_name_H-M   'P 1'
_cell_length_a   7.26789367
_cell_length_b   7.26789367
_cell_length_c   7.26789367
_cell_angle_alpha   90.00000000
_cell_angle_beta   90.00000000
_cell_angle_gamma   90.00000000
_symmetry_Int_Tables_number   1
_chemical_formula_structural   LiMnPO4
_chemical_formula_sum   'Li4 Mn4 P4 O16'
_cell_volume   383.90670228
_cell_formula_units_Z   4
loop_
 _symmetry_equiv_pos_site_id
 _symmetry_equiv_pos_as_xyz
  1  'x, y, z'
loop_
 _atom_site_type_symbol
 _atom_site_label
 _atom_site_symmetry_multiplicity
 _atom_site_fract_x
 _atom_site_fract_y
 _atom_site_fract_z
 _atom_site_occupancy
  Li  Li0  1  0.20261183  0.70261183  0.79738817  1
  Li  Li1  1  0.29738817  0.29738817  0.29738817  1
  Li  Li2  1  0.70261183  0.79738817  0.20261183  1
  Li  Li3  1  0.79738817  0.20261183  0.70261183  1
  Mn  Mn4  1  0.25640583  0.74359417  0.24359417  1
  Mn  Mn5  1  0.24359417  0.25640583  0.74359417  1
  Mn  Mn6  1  0.75640583  0.75640583  0.75640583  1
  Mn  Mn7  1  0.74359417  0.24359417  0.25640583  1
  P  P8  1  0.02880483  0.02880483  0.02880483  1
  P  P9  1  0.97119517  0.52880483  0.47119517  1
  P  P10  1  0.47119517  0.97119517  0.52880483  1
  P  P11  1  0.52880483  0.47119517  0.97119517  1
  O  O12  1  0.97879950  0.60280550  0.67405350  1
  O  O13  1  0.14903317  0.14903317  0.14903317  1
  O  O14  1  0.17405350  0.52120050  0.39719450  1
  O  O15  1  0.10280550  0.82594650  0.02120050  1
  O  O16  1  0.39719450  0.17405350  0.52120050  1
  O  O17  1  0.32594650  0.47879950  0.89719450  1
  O  O18  1  0.35096683  0.85096683  0.64903317  1
  O  O19  1  0.52120050  0.39719450  0.17405350  1
  O  O20  1  0.47879950  0.89719450  0.32594650  1
  O  O21  1  0.64903317  0.35096683  0.85096683  1
  O  O22  1  0.67405350  0.97879950  0.60280550  1
  O  O23  1  0.60280550  0.67405350  0.97879950  1
  O  O24  1  0.89719450  0.32594650  0.47879950  1
  O  O25  1  0.82594650  0.02120050  0.10280550  1
  O  O26  1  0.85096683  0.64903317  0.35096683  1
  O  O27  1  0.02120050  0.10280550  0.82594650  1
