# generated using pymatgen
data_Dy3Ni2
_symmetry_space_group_name_H-M   'P 1'
_cell_length_a   13.28584000
_cell_length_b   3.65982600
_cell_length_c   9.51605857
_cell_angle_alpha   90.00000000
_cell_angle_beta   105.45484894
_cell_angle_gamma   90.00000000
_symmetry_Int_Tables_number   1
_chemical_formula_structural   Dy3Ni2
_chemical_formula_sum   'Dy12 Ni8'
_cell_volume   445.97636652
_cell_formula_units_Z   4
loop_
 _symmetry_equiv_pos_site_id
 _symmetry_equiv_pos_as_xyz
  1  'x, y, z'
loop_
 _atom_site_type_symbol
 _atom_site_label
 _atom_site_symmetry_multiplicity
 _atom_site_fract_x
 _atom_site_fract_y
 _atom_site_fract_z
 _atom_site_occupancy
  Dy  Dy0  1  0.85590400  0.00000000  0.63277300  1
  Dy  Dy1  1  0.64409600  0.50000000  0.36722700  1
  Dy  Dy2  1  0.90279900  0.50000000  0.32706800  1
  Dy  Dy3  1  0.59720100  0.00000000  0.67293200  1
  Dy  Dy4  1  0.63162400  0.50000000  0.99741700  1
  Dy  Dy5  1  0.86837600  0.00000000  0.00258300  1
  Dy  Dy6  1  0.35590400  0.50000000  0.63277300  1
  Dy  Dy7  1  0.14409600  0.00000000  0.36722700  1
  Dy  Dy8  1  0.40279900  0.00000000  0.32706800  1
  Dy  Dy9  1  0.09720100  0.50000000  0.67293200  1
  Dy  Dy10  1  0.13162400  0.00000000  0.99741700  1
  Dy  Dy11  1  0.36837600  0.50000000  0.00258300  1
  Ni  Ni12  1  0.74369300  0.00000000  0.22658700  1
  Ni  Ni13  1  0.75630700  0.50000000  0.77341300  1
  Ni  Ni14  1  0.53471100  0.00000000  0.14437100  1
  Ni  Ni15  1  0.96528900  0.50000000  0.85562900  1
  Ni  Ni16  1  0.24369300  0.50000000  0.22658700  1
  Ni  Ni17  1  0.25630700  0.00000000  0.77341300  1
  Ni  Ni18  1  0.03471100  0.50000000  0.14437100  1
  Ni  Ni19  1  0.46528900  0.00000000  0.85562900  1
