# generated using pymatgen
data_MnFe(PO4)2
_symmetry_space_group_name_H-M   'P 1'
_cell_length_a   8.62883633
_cell_length_b   8.62883633
_cell_length_c   21.00613895
_cell_angle_alpha   90.00000000
_cell_angle_beta   90.00000000
_cell_angle_gamma   120.00000000
_symmetry_Int_Tables_number   1
_chemical_formula_structural   MnFe(PO4)2
_chemical_formula_sum   'Mn9 Fe9 P18 O72'
_cell_volume   1354.50723230
_cell_formula_units_Z   9
loop_
 _symmetry_equiv_pos_site_id
 _symmetry_equiv_pos_as_xyz
  1  'x, y, z'
loop_
 _atom_site_type_symbol
 _atom_site_label
 _atom_site_symmetry_multiplicity
 _atom_site_fract_x
 _atom_site_fract_y
 _atom_site_fract_z
 _atom_site_occupancy
  Mn  Mn0  1  0.33333333  0.66666667  0.66456167  1
  Mn  Mn1  1  0.33333333  0.66666667  0.81025167  1
  Mn  Mn2  1  0.33333333  0.66666667  0.16663467  1
  Mn  Mn3  1  0.00000000  0.00000000  0.99789500  1
  Mn  Mn4  1  0.00000000  0.00000000  0.14358500  1
  Mn  Mn5  1  0.00000000  0.00000000  0.49996800  1
  Mn  Mn6  1  0.66666667  0.33333333  0.33122833  1
  Mn  Mn7  1  0.66666667  0.33333333  0.47691833  1
  Mn  Mn8  1  0.66666667  0.33333333  0.83330133  1
  Fe  Fe9  1  0.33333333  0.66666667  0.31271767  1
  Fe  Fe10  1  0.33333333  0.66666667  0.52160767  1
  Fe  Fe11  1  0.33333333  0.66666667  0.02167567  1
  Fe  Fe12  1  0.00000000  0.00000000  0.64605100  1
  Fe  Fe13  1  0.00000000  0.00000000  0.85494100  1
  Fe  Fe14  1  0.00000000  0.00000000  0.35500900  1
  Fe  Fe15  1  0.66666667  0.33333333  0.97938433  1
  Fe  Fe16  1  0.66666667  0.33333333  0.18827433  1
  Fe  Fe17  1  0.66666667  0.33333333  0.68834233  1
  P  P18  1  0.70811767  0.71005933  0.24916733  1
  P  P19  1  0.28994067  0.99805833  0.24916733  1
  P  P20  1  0.00194167  0.29188233  0.24916733  1
  P  P21  1  0.66769233  0.03838667  0.08500767  1
  P  P22  1  0.37069433  0.33230767  0.08500767  1
  P  P23  1  0.96161333  0.62930567  0.08500767  1
  P  P24  1  0.37478433  0.04339267  0.58250067  1
  P  P25  1  0.95660733  0.33139167  0.58250067  1
  P  P26  1  0.66860833  0.62521567  0.58250067  1
  P  P27  1  0.33435900  0.37172000  0.41834100  1
  P  P28  1  0.03736100  0.66564100  0.41834100  1
  P  P29  1  0.62828000  0.96263900  0.41834100  1
  P  P30  1  0.04145100  0.37672600  0.91583400  1
  P  P31  1  0.62327400  0.66472500  0.91583400  1
  P  P32  1  0.33527500  0.95854900  0.91583400  1
  P  P33  1  0.00102567  0.70505333  0.75167433  1
  P  P34  1  0.70402767  0.99897433  0.75167433  1
  P  P35  1  0.29494667  0.29597233  0.75167433  1
  O  O36  1  0.52386033  0.65820567  0.97663967  1
  O  O37  1  0.34179433  0.86565467  0.97663967  1
  O  O38  1  0.13434533  0.47613967  0.97663967  1
  O  O39  1  0.68785167  0.52111333  0.25521433  1
  O  O40  1  0.80752667  0.80897833  0.18798433  1
  O  O41  1  0.51805467  0.68819933  0.24220533  1
  O  O42  1  0.47888667  0.16673833  0.25521433  1
  O  O43  1  0.31180067  0.82985533  0.24220533  1
  O  O44  1  0.66972700  0.13710800  0.14497400  1
  O  O45  1  0.17014467  0.48194533  0.24220533  1
  O  O46  1  0.83966200  0.01873100  0.07886400  1
  O  O47  1  0.46738100  0.33027300  0.14497400  1
  O  O48  1  0.19102167  0.99854833  0.18798433  1
  O  O49  1  0.83326167  0.31214833  0.25521433  1
  O  O50  1  0.50192467  0.84705733  0.09047333  1
  O  O51  1  0.00145167  0.19247333  0.18798433  1
  O  O52  1  0.34513267  0.49807533  0.09047333  1
  O  O53  1  0.17906900  0.16033800  0.07886400  1
  O  O54  1  0.15294267  0.65486733  0.09047333  1
  O  O55  1  0.86289200  0.53261900  0.14497400  1
  O  O56  1  0.98126900  0.82093100  0.07886400  1
  O  O57  1  0.53134300  0.86793500  0.35699100  1
  O  O58  1  0.33659200  0.46865700  0.35699100  1
  O  O59  1  0.13206500  0.66340800  0.35699100  1
  O  O60  1  0.19052700  0.99153900  0.30997300  1
  O  O61  1  0.00846100  0.19898800  0.30997300  1
  O  O62  1  0.80101200  0.80947300  0.30997300  1
  O  O63  1  0.35451833  0.85444667  0.58854767  1
  O  O64  1  0.47419333  0.14231167  0.52131767  1
  O  O65  1  0.18472133  0.02153267  0.57553867  1
  O  O66  1  0.14555333  0.50007167  0.58854767  1
  O  O67  1  0.97846733  0.16318867  0.57553867  1
  O  O68  1  0.33639367  0.47044133  0.47830733  1
  O  O69  1  0.83681133  0.81527867  0.57553867  1
  O  O70  1  0.50632867  0.35206433  0.41219733  1
  O  O71  1  0.13404767  0.66360633  0.47830733  1
  O  O72  1  0.85768833  0.33188167  0.52131767  1
  O  O73  1  0.49992833  0.64548167  0.58854767  1
  O  O74  1  0.16859133  0.18039067  0.42380667  1
  O  O75  1  0.66811833  0.52580667  0.52131767  1
  O  O76  1  0.01179933  0.83140867  0.42380667  1
  O  O77  1  0.84573567  0.49367133  0.41219733  1
  O  O78  1  0.81960933  0.98820067  0.42380667  1
  O  O79  1  0.52955867  0.86595233  0.47830733  1
  O  O80  1  0.64793567  0.15426433  0.41219733  1
  O  O81  1  0.19800967  0.20126833  0.69032433  1
  O  O82  1  0.00325867  0.80199033  0.69032433  1
  O  O83  1  0.79873167  0.99674133  0.69032433  1
  O  O84  1  0.85719367  0.32487233  0.64330633  1
  O  O85  1  0.67512767  0.53232133  0.64330633  1
  O  O86  1  0.46767867  0.14280633  0.64330633  1
  O  O87  1  0.02118500  0.18778000  0.92188100  1
  O  O88  1  0.14086000  0.47564500  0.85465100  1
  O  O89  1  0.85138800  0.35486600  0.90887200  1
  O  O90  1  0.81222000  0.83340500  0.92188100  1
  O  O91  1  0.64513400  0.49652200  0.90887200  1
  O  O92  1  0.00306033  0.80377467  0.81164067  1
  O  O93  1  0.50347800  0.14861200  0.90887200  1
  O  O94  1  0.17299533  0.68539767  0.74553067  1
  O  O95  1  0.80071433  0.99693967  0.81164067  1
  O  O96  1  0.52435500  0.66521500  0.85465100  1
  O  O97  1  0.16659500  0.97881500  0.92188100  1
  O  O98  1  0.83525800  0.51372400  0.75714000  1
  O  O99  1  0.33478500  0.85914000  0.85465100  1
  O  O100  1  0.67846600  0.16474200  0.75714000  1
  O  O101  1  0.51240233  0.82700467  0.74553067  1
  O  O102  1  0.48627600  0.32153400  0.75714000  1
  O  O103  1  0.19622533  0.19928567  0.81164067  1
  O  O104  1  0.31460233  0.48759767  0.74553067  1
  O  O105  1  0.86467633  0.53460167  0.02365767  1
  O  O106  1  0.66992533  0.13532367  0.02365767  1
  O  O107  1  0.46539833  0.33007467  0.02365767  1
