# generated using pymatgen
data_VNi3Sb2(PO4)6
_symmetry_space_group_name_H-M   'P 1'
_cell_length_a   8.65600582
_cell_length_b   8.65600582
_cell_length_c   21.80902472
_cell_angle_alpha   90.00000000
_cell_angle_beta   90.00000000
_cell_angle_gamma   120.00000000
_symmetry_Int_Tables_number   1
_chemical_formula_structural   VNi3Sb2(PO4)6
_chemical_formula_sum   'V3 Ni9 Sb6 P18 O72'
_cell_volume   1415.14830524
_cell_formula_units_Z   3
loop_
 _symmetry_equiv_pos_site_id
 _symmetry_equiv_pos_as_xyz
  1  'x, y, z'
loop_
 _atom_site_type_symbol
 _atom_site_label
 _atom_site_symmetry_multiplicity
 _atom_site_fract_x
 _atom_site_fract_y
 _atom_site_fract_z
 _atom_site_occupancy
  V  V0  1  0.66666667  0.33333333  0.19025833  1
  V  V1  1  0.33333333  0.66666667  0.52359167  1
  V  V2  1  0.00000000  0.00000000  0.85692500  1
  Ni  Ni3  1  0.33333333  0.66666667  0.01933567  1
  Ni  Ni4  1  0.00000000  0.00000000  0.15261800  1
  Ni  Ni5  1  0.33333333  0.66666667  0.31306467  1
  Ni  Ni6  1  0.00000000  0.00000000  0.35266900  1
  Ni  Ni7  1  0.66666667  0.33333333  0.48595133  1
  Ni  Ni8  1  0.00000000  0.00000000  0.64639800  1
  Ni  Ni9  1  0.66666667  0.33333333  0.68600233  1
  Ni  Ni10  1  0.33333333  0.66666667  0.81928467  1
  Ni  Ni11  1  0.66666667  0.33333333  0.97973133  1
  Sb  Sb12  1  0.00000000  0.00000000  0.01894000  1
  Sb  Sb13  1  0.33333333  0.66666667  0.17117667  1
  Sb  Sb14  1  0.66666667  0.33333333  0.35227333  1
  Sb  Sb15  1  0.00000000  0.00000000  0.50451000  1
  Sb  Sb16  1  0.33333333  0.66666667  0.68560667  1
  Sb  Sb17  1  0.66666667  0.33333333  0.83784333  1
  P  P18  1  0.66473800  0.61871300  0.08357200  1
  P  P19  1  0.95397500  0.33526200  0.08357200  1
  P  P20  1  0.38128700  0.04602500  0.08357200  1
  P  P21  1  0.29330300  0.29211100  0.24696600  1
  P  P22  1  0.70788900  0.00119200  0.24696600  1
  P  P23  1  0.99880800  0.70669700  0.24696600  1
  P  P24  1  0.33140467  0.95204633  0.41690533  1
  P  P25  1  0.62064167  0.66859533  0.41690533  1
  P  P26  1  0.04795367  0.37935833  0.41690533  1
  P  P27  1  0.95996967  0.62544433  0.58029933  1
  P  P28  1  0.37455567  0.33452533  0.58029933  1
  P  P29  1  0.66547467  0.04003033  0.58029933  1
  P  P30  1  0.99807133  0.28537967  0.75023867  1
  P  P31  1  0.28730833  0.00192867  0.75023867  1
  P  P32  1  0.71462033  0.71269167  0.75023867  1
  P  P33  1  0.62663633  0.95877767  0.91363267  1
  P  P34  1  0.04122233  0.66785867  0.91363267  1
  P  P35  1  0.33214133  0.37336367  0.91363267  1
  O  O36  1  0.86813433  0.33233767  0.02365767  1
  O  O37  1  0.46420333  0.13186567  0.02365767  1
  O  O38  1  0.66766233  0.53579667  0.02365767  1
  O  O39  1  0.83391900  0.81490900  0.08364600  1
  O  O40  1  0.67470467  0.51922833  0.14132233  1
  O  O41  1  0.49476700  0.63657600  0.09229800  1
  O  O42  1  0.98099000  0.16608100  0.08364600  1
  O  O43  1  0.14180900  0.50523300  0.09229800  1
  O  O44  1  0.19456133  0.20762767  0.18879067  1
  O  O45  1  0.36342400  0.85819100  0.09229800  1
  O  O46  1  0.49180033  0.32540667  0.24295367  1
  O  O47  1  0.79237233  0.98693367  0.18879067  1
  O  O48  1  0.84452367  0.32529533  0.14132233  1
  O  O49  1  0.18509100  0.01901000  0.08364600  1
  O  O50  1  0.32356867  0.48890833  0.24518933  1
  O  O51  1  0.48077167  0.15547633  0.14132233  1
  O  O52  1  0.51109167  0.83466033  0.24518933  1
  O  O53  1  0.67459333  0.16639367  0.24295367  1
  O  O54  1  0.16533967  0.67643133  0.24518933  1
  O  O55  1  0.01306633  0.80543867  0.18879067  1
  O  O56  1  0.83360633  0.50819967  0.24295367  1
  O  O57  1  0.97672400  0.77868200  0.30758500  1
  O  O58  1  0.22131800  0.19804200  0.30758500  1
  O  O59  1  0.80195800  0.02327600  0.30758500  1
  O  O60  1  0.53480100  0.66567100  0.35699100  1
  O  O61  1  0.13087000  0.46519900  0.35699100  1
  O  O62  1  0.33432900  0.86913000  0.35699100  1
  O  O63  1  0.50058567  0.14824233  0.41697933  1
  O  O64  1  0.34137133  0.85256167  0.47465567  1
  O  O65  1  0.16143367  0.96990933  0.42563133  1
  O  O66  1  0.64765667  0.49941433  0.41697933  1
  O  O67  1  0.80847567  0.83856633  0.42563133  1
  O  O68  1  0.86122800  0.54096100  0.52212400  1
  O  O69  1  0.03009067  0.19152433  0.42563133  1
  O  O70  1  0.15846700  0.65874000  0.57628700  1
  O  O71  1  0.45903900  0.32026700  0.52212400  1
  O  O72  1  0.51119033  0.65862867  0.47465567  1
  O  O73  1  0.85175767  0.35234333  0.41697933  1
  O  O74  1  0.99023533  0.82224167  0.57852267  1
  O  O75  1  0.14743833  0.48880967  0.47465567  1
  O  O76  1  0.17775833  0.16799367  0.57852267  1
  O  O77  1  0.34126000  0.49972700  0.57628700  1
  O  O78  1  0.83200633  0.00976467  0.57852267  1
  O  O79  1  0.67973300  0.13877200  0.52212400  1
  O  O80  1  0.50027300  0.84153300  0.57628700  1
  O  O81  1  0.64339067  0.11201533  0.64091833  1
  O  O82  1  0.88798467  0.53137533  0.64091833  1
  O  O83  1  0.46862467  0.35660933  0.64091833  1
  O  O84  1  0.20146767  0.99900433  0.69032433  1
  O  O85  1  0.79753667  0.79853233  0.69032433  1
  O  O86  1  0.00099567  0.20246333  0.69032433  1
  O  O87  1  0.16725233  0.48157567  0.75031267  1
  O  O88  1  0.00803800  0.18589500  0.80798900  1
  O  O89  1  0.82810033  0.30324267  0.75896467  1
  O  O90  1  0.31432333  0.83274767  0.75031267  1
  O  O91  1  0.47514233  0.17189967  0.75896467  1
  O  O92  1  0.52789467  0.87429433  0.85545733  1
  O  O93  1  0.69675733  0.52485767  0.75896467  1
  O  O94  1  0.82513367  0.99207333  0.90962033  1
  O  O95  1  0.12570567  0.65360033  0.85545733  1
  O  O96  1  0.17785700  0.99196200  0.80798900  1
  O  O97  1  0.51842433  0.68567667  0.75031267  1
  O  O98  1  0.65690200  0.15557500  0.91185600  1
  O  O99  1  0.81410500  0.82214300  0.80798900  1
  O  O100  1  0.84442500  0.50132700  0.91185600  1
  O  O101  1  0.00792667  0.83306033  0.90962033  1
  O  O102  1  0.49867300  0.34309800  0.91185600  1
  O  O103  1  0.34639967  0.47210533  0.85545733  1
  O  O104  1  0.16693967  0.17486633  0.90962033  1
  O  O105  1  0.31005733  0.44534867  0.97425167  1
  O  O106  1  0.55465133  0.86470867  0.97425167  1
  O  O107  1  0.13529133  0.68994267  0.97425167  1
