# generated using pymatgen
data_Mn3Sb(PO4)4
_symmetry_space_group_name_H-M   'P 1'
_cell_length_a   5.04097100
_cell_length_b   6.15350800
_cell_length_c   10.06642891
_cell_angle_alpha   90.00000000
_cell_angle_beta   91.14269252
_cell_angle_gamma   90.00000000
_symmetry_Int_Tables_number   1
_chemical_formula_structural   Mn3Sb(PO4)4
_chemical_formula_sum   'Mn3 Sb1 P4 O16'
_cell_volume   312.19505710
_cell_formula_units_Z   1
loop_
 _symmetry_equiv_pos_site_id
 _symmetry_equiv_pos_as_xyz
  1  'x, y, z'
loop_
 _atom_site_type_symbol
 _atom_site_label
 _atom_site_symmetry_multiplicity
 _atom_site_fract_x
 _atom_site_fract_y
 _atom_site_fract_z
 _atom_site_occupancy
  Mn  Mn0  1  0.91355500  0.50000000  0.71374700  1
  Mn  Mn1  1  0.57548800  0.50000000  0.20947400  1
  Mn  Mn2  1  0.41442700  0.00000000  0.78707200  1
  Sb  Sb3  1  0.04984200  0.00000000  0.28514900  1
  P  P4  1  0.89445500  0.00000000  0.61090000  1
  P  P5  1  0.58896800  0.00000000  0.08811300  1
  P  P6  1  0.41683700  0.50000000  0.89507400  1
  P  P7  1  0.10344400  0.50000000  0.40627900  1
  O  O8  1  0.81523500  0.00000000  0.46151500  1
  O  O9  1  0.76488300  0.80161800  0.68065900  1
  O  O10  1  0.76488300  0.19838200  0.68065900  1
  O  O11  1  0.80971500  0.50000000  0.36781300  1
  O  O12  1  0.72040500  0.50000000  0.87574300  1
  O  O13  1  0.73174200  0.80508200  0.16273300  1
  O  O14  1  0.73174200  0.19491800  0.16273300  1
  O  O15  1  0.65198800  0.00000000  0.94067800  1
  O  O16  1  0.36545800  0.50000000  0.04506000  1
  O  O17  1  0.27633800  0.30203500  0.82712700  1
  O  O18  1  0.27633800  0.69796500  0.82712700  1
  O  O19  1  0.28831300  0.00000000  0.10758400  1
  O  O20  1  0.19898600  0.00000000  0.62571500  1
  O  O21  1  0.25655200  0.30482900  0.34066000  1
  O  O22  1  0.25655200  0.69517100  0.34066000  1
  O  O23  1  0.13385700  0.50000000  0.55772600  1
