# generated using pymatgen
data_Ti3Mn2Fe(PO4)6
_symmetry_space_group_name_H-M   'P 1'
_cell_length_a   8.68583433
_cell_length_b   8.68583433
_cell_length_c   21.18084633
_cell_angle_alpha   90.00000000
_cell_angle_beta   90.00000000
_cell_angle_gamma   120.00000000
_symmetry_Int_Tables_number   1
_chemical_formula_structural   Ti3Mn2Fe(PO4)6
_chemical_formula_sum   'Ti9 Mn6 Fe3 P18 O72'
_cell_volume   1383.87551085
_cell_formula_units_Z   3
loop_
 _symmetry_equiv_pos_site_id
 _symmetry_equiv_pos_as_xyz
  1  'x, y, z'
loop_
 _atom_site_type_symbol
 _atom_site_label
 _atom_site_symmetry_multiplicity
 _atom_site_fract_x
 _atom_site_fract_y
 _atom_site_fract_z
 _atom_site_occupancy
  Ti  Ti0  1  0.33333333  0.66666667  0.52255567  1
  Ti  Ti1  1  0.33333333  0.66666667  0.31269567  1
  Ti  Ti2  1  0.33333333  0.66666667  0.01931367  1
  Ti  Ti3  1  0.00000000  0.00000000  0.85588900  1
  Ti  Ti4  1  0.00000000  0.00000000  0.64602900  1
  Ti  Ti5  1  0.00000000  0.00000000  0.35264700  1
  Ti  Ti6  1  0.66666667  0.33333333  0.18922233  1
  Ti  Ti7  1  0.66666667  0.33333333  0.97936233  1
  Ti  Ti8  1  0.66666667  0.33333333  0.68598033  1
  Mn  Mn9  1  0.33333333  0.66666667  0.67067667  1
  Mn  Mn10  1  0.33333333  0.66666667  0.16717067  1
  Mn  Mn11  1  0.00000000  0.00000000  0.00401000  1
  Mn  Mn12  1  0.00000000  0.00000000  0.50050400  1
  Mn  Mn13  1  0.66666667  0.33333333  0.33734333  1
  Mn  Mn14  1  0.66666667  0.33333333  0.83383733  1
  Fe  Fe15  1  0.33333333  0.66666667  0.81186767  1
  Fe  Fe16  1  0.00000000  0.00000000  0.14520100  1
  Fe  Fe17  1  0.66666667  0.33333333  0.47853433  1
  P  P18  1  0.37504967  0.33603033  0.08312633  1
  P  P19  1  0.96098067  0.62495033  0.08312633  1
  P  P20  1  0.66396967  0.03901933  0.08312633  1
  P  P21  1  0.99933333  0.29558167  0.24873667  1
  P  P22  1  0.70441833  0.70375167  0.24873667  1
  P  P23  1  0.29624833  0.00066667  0.24873667  1
  P  P24  1  0.04171633  0.66936367  0.41645967  1
  P  P25  1  0.62764733  0.95828367  0.41645967  1
  P  P26  1  0.33063633  0.37235267  0.41645967  1
  P  P27  1  0.66600000  0.62891500  0.58207000  1
  P  P28  1  0.37108500  0.03708500  0.58207000  1
  P  P29  1  0.96291500  0.33400000  0.58207000  1
  P  P30  1  0.70838300  0.00269700  0.74979300  1
  P  P31  1  0.29431400  0.29161700  0.74979300  1
  P  P32  1  0.99730300  0.70568600  0.74979300  1
  P  P33  1  0.33266667  0.96224833  0.91540333  1
  P  P34  1  0.03775167  0.37041833  0.91540333  1
  P  P35  1  0.62958167  0.66733333  0.91540333  1
  O  O36  1  0.31797133  0.47295467  0.35803167  1
  O  O37  1  0.15498333  0.68202867  0.35803167  1
  O  O38  1  0.83154500  0.31677800  0.25609000  1
  O  O39  1  0.52704533  0.84501667  0.35803167  1
  O  O40  1  0.00138433  0.20587767  0.18872667  1
  O  O41  1  0.16600967  0.48702833  0.24845733  1
  O  O42  1  0.68322200  0.51476700  0.25609000  1
  O  O43  1  0.51297167  0.67898133  0.24845733  1
  O  O44  1  0.14474533  0.66659167  0.47631367  1
  O  O45  1  0.32101867  0.83399033  0.24845733  1
  O  O46  1  0.19307133  0.17069367  0.07516667  1
  O  O47  1  0.52184633  0.85525467  0.47631367  1
  O  O48  1  0.79412233  0.79550667  0.18872667  1
  O  O49  1  0.48523300  0.16845500  0.25609000  1
  O  O50  1  0.35919633  0.50685067  0.08842067  1
  O  O51  1  0.20449333  0.99861567  0.18872667  1
  O  O52  1  0.14765433  0.64080367  0.08842067  1
  O  O53  1  0.97762233  0.80692867  0.07516667  1
  O  O54  1  0.49314933  0.85234567  0.08842067  1
  O  O55  1  0.33340833  0.47815367  0.47631367  1
  O  O56  1  0.14383667  0.47751033  0.97550433  1
  O  O57  1  0.82930633  0.02237767  0.07516667  1
  O  O58  1  0.52248967  0.66632633  0.97550433  1
  O  O59  1  0.33367367  0.85616333  0.97550433  1
  O  O60  1  0.98463800  0.80628800  0.69136500  1
  O  O61  1  0.82165000  0.01536200  0.69136500  1
  O  O62  1  0.49821167  0.65011133  0.58942333  1
  O  O63  1  0.19371200  0.17835000  0.69136500  1
  O  O64  1  0.66805100  0.53921100  0.52206000  1
  O  O65  1  0.83267633  0.82036167  0.58179067  1
  O  O66  1  0.34988867  0.84810033  0.58942333  1
  O  O67  1  0.17963833  0.01231467  0.58179067  1
  O  O68  1  0.81141200  0.99992500  0.80964700  1
  O  O69  1  0.98768533  0.16732367  0.58179067  1
  O  O70  1  0.85973800  0.50402700  0.40850000  1
  O  O71  1  0.18851300  0.18858800  0.80964700  1
  O  O72  1  0.46078900  0.12884000  0.52206000  1
  O  O73  1  0.15189967  0.50178833  0.58942333  1
  O  O74  1  0.02586300  0.84018400  0.42175400  1
  O  O75  1  0.87116000  0.33194900  0.52206000  1
  O  O76  1  0.81432100  0.97413700  0.42175400  1
  O  O77  1  0.64428900  0.14026200  0.40850000  1
  O  O78  1  0.15981600  0.18567900  0.42175400  1
  O  O79  1  0.00007500  0.81148700  0.80964700  1
  O  O80  1  0.81050333  0.81084367  0.30883767  1
  O  O81  1  0.49597300  0.35571100  0.40850000  1
  O  O82  1  0.18915633  0.99965967  0.30883767  1
  O  O83  1  0.00034033  0.18949667  0.30883767  1
  O  O84  1  0.65130467  0.13962133  0.02469833  1
  O  O85  1  0.48831667  0.34869533  0.02469833  1
  O  O86  1  0.16487833  0.98344467  0.92275667  1
  O  O87  1  0.86037867  0.51168333  0.02469833  1
  O  O88  1  0.33471767  0.87254433  0.85539333  1
  O  O89  1  0.49934300  0.15369500  0.91512400  1
  O  O90  1  0.01655533  0.18143367  0.92275667  1
  O  O91  1  0.84630500  0.34564800  0.91512400  1
  O  O92  1  0.47807867  0.33325833  0.14298033  1
  O  O93  1  0.65435200  0.50065700  0.91512400  1
  O  O94  1  0.52640467  0.83736033  0.74183333  1
  O  O95  1  0.85517967  0.52192133  0.14298033  1
  O  O96  1  0.12745567  0.46217333  0.85539333  1
  O  O97  1  0.81856633  0.83512167  0.92275667  1
  O  O98  1  0.69252967  0.17351733  0.75508733  1
  O  O99  1  0.53782667  0.66528233  0.85539333  1
  O  O100  1  0.48098767  0.30747033  0.75508733  1
  O  O101  1  0.31095567  0.47359533  0.74183333  1
  O  O102  1  0.82648267  0.51901233  0.75508733  1
  O  O103  1  0.66674167  0.14482033  0.14298033  1
  O  O104  1  0.47717000  0.14417700  0.64217100  1
  O  O105  1  0.16263967  0.68904433  0.74183333  1
  O  O106  1  0.85582300  0.33299300  0.64217100  1
  O  O107  1  0.66700700  0.52283000  0.64217100  1
