# generated using pymatgen
data_K2NiP4(HO2)8
_symmetry_space_group_name_H-M   'P 1'
_cell_length_a   6.97032456
_cell_length_b   7.43769620
_cell_length_c   7.60014257
_cell_angle_alpha   81.23329526
_cell_angle_beta   73.50855431
_cell_angle_gamma   84.53042197
_symmetry_Int_Tables_number   1
_chemical_formula_structural   K2NiP4(HO2)8
_chemical_formula_sum   'K2 Ni1 P4 H8 O16'
_cell_volume   372.82888042
_cell_formula_units_Z   1
loop_
 _symmetry_equiv_pos_site_id
 _symmetry_equiv_pos_as_xyz
  1  'x, y, z'
loop_
 _atom_site_type_symbol
 _atom_site_label
 _atom_site_symmetry_multiplicity
 _atom_site_fract_x
 _atom_site_fract_y
 _atom_site_fract_z
 _atom_site_occupancy
  K  K0  1  0.11536350  0.73656900  0.29749850  1
  K  K1  1  0.88463650  0.26343100  0.70250150  1
  Ni  Ni2  1  0.50000000  0.50000000  0.50000000  1
  P  P3  1  0.32506000  0.26999300  0.24334200  1
  P  P4  1  0.67494000  0.73000700  0.75665800  1
  P  P5  1  0.25317950  0.80892950  0.75713400  1
  P  P6  1  0.74682050  0.19107050  0.24286600  1
  H  H7  1  0.05266300  0.26898800  0.07644800  1
  H  H8  1  0.94733700  0.73101200  0.92355200  1
  H  H9  1  0.25015200  0.04523300  0.47333800  1
  H  H10  1  0.74984800  0.95476700  0.52666200  1
  H  H11  1  0.38545950  0.18562150  0.70814900  1
  H  H12  1  0.61454050  0.81437850  0.29185100  1
  H  H13  1  0.37389350  0.32283550  0.85195800  1
  H  H14  1  0.62610650  0.67716450  0.14804200  1
  O  O15  1  0.23994300  0.33950000  0.08126700  1
  O  O16  1  0.76005700  0.66050000  0.91873300  1
  O  O17  1  0.23493150  0.08093400  0.33841450  1
  O  O18  1  0.76506850  0.91906600  0.66158550  1
  O  O19  1  0.07483550  0.78443700  0.93783550  1
  O  O20  1  0.92516450  0.21556300  0.06216450  1
  O  O21  1  0.25781250  0.00719950  0.66610800  1
  O  O22  1  0.74218750  0.99280050  0.33389200  1
  O  O23  1  0.29892850  0.39672100  0.38795450  1
  O  O24  1  0.70107150  0.60327900  0.61204550  1
  O  O25  1  0.26165750  0.66969100  0.62900550  1
  O  O26  1  0.73834250  0.33030900  0.37099450  1
  O  O27  1  0.56200700  0.22875650  0.14857350  1
  O  O28  1  0.43799300  0.77124350  0.85142650  1
  O  O29  1  0.55117150  0.70720500  0.27329250  1
  O  O30  1  0.44882850  0.29279500  0.72670750  1
