# generated using pymatgen
data_Li2MnFe3O8
_symmetry_space_group_name_H-M   'P 1'
_cell_length_a   10.27026600
_cell_length_b   5.85679400
_cell_length_c   6.00216294
_cell_angle_alpha   90.00000000
_cell_angle_beta   125.05240755
_cell_angle_gamma   90.00000000
_symmetry_Int_Tables_number   1
_chemical_formula_structural   Li2MnFe3O8
_chemical_formula_sum   'Li4 Mn2 Fe6 O16'
_cell_volume   295.55309942
_cell_formula_units_Z   2
loop_
 _symmetry_equiv_pos_site_id
 _symmetry_equiv_pos_as_xyz
  1  'x, y, z'
loop_
 _atom_site_type_symbol
 _atom_site_label
 _atom_site_symmetry_multiplicity
 _atom_site_fract_x
 _atom_site_fract_y
 _atom_site_fract_z
 _atom_site_occupancy
  Li  Li0  1  0.25000000  0.75000000  0.50000000  1
  Li  Li1  1  0.25000000  0.25000000  0.50000000  1
  Li  Li2  1  0.75000000  0.25000000  0.50000000  1
  Li  Li3  1  0.75000000  0.75000000  0.50000000  1
  Mn  Mn4  1  0.00000000  0.00000000  0.00000000  1
  Mn  Mn5  1  0.50000000  0.50000000  0.00000000  1
  Fe  Fe6  1  0.75000000  0.75000000  0.00000000  1
  Fe  Fe7  1  0.00000000  0.50000000  0.00000000  1
  Fe  Fe8  1  0.75000000  0.25000000  0.00000000  1
  Fe  Fe9  1  0.25000000  0.25000000  0.00000000  1
  Fe  Fe10  1  0.50000000  0.00000000  0.00000000  1
  Fe  Fe11  1  0.25000000  0.75000000  0.00000000  1
  O  O12  1  0.00464450  0.25169650  0.79306600  1
  O  O13  1  0.27043200  0.00000000  0.78753600  1
  O  O14  1  0.00464450  0.74830350  0.79306600  1
  O  O15  1  0.27082300  0.50000000  0.78676800  1
  O  O16  1  0.72917700  0.50000000  0.21323200  1
  O  O17  1  0.99535550  0.25169650  0.20693400  1
  O  O18  1  0.72956800  0.00000000  0.21246400  1
  O  O19  1  0.99535550  0.74830350  0.20693400  1
  O  O20  1  0.50464450  0.75169650  0.79306600  1
  O  O21  1  0.77043200  0.50000000  0.78753600  1
  O  O22  1  0.50464450  0.24830350  0.79306600  1
  O  O23  1  0.77082300  0.00000000  0.78676800  1
  O  O24  1  0.22917700  0.00000000  0.21323200  1
  O  O25  1  0.49535550  0.75169650  0.20693400  1
  O  O26  1  0.22956800  0.50000000  0.21246400  1
  O  O27  1  0.49535550  0.24830350  0.20693400  1
