# generated using pymatgen
data_LiFeF3
_symmetry_space_group_name_H-M   'P 1'
_cell_length_a   11.68463800
_cell_length_b   7.82851600
_cell_length_c   5.79063177
_cell_angle_alpha   90.00000000
_cell_angle_beta   111.47102751
_cell_angle_gamma   90.00000000
_symmetry_Int_Tables_number   1
_chemical_formula_structural   LiFeF3
_chemical_formula_sum   'Li8 Fe8 F24'
_cell_volume   492.92971368
_cell_formula_units_Z   8
loop_
 _symmetry_equiv_pos_site_id
 _symmetry_equiv_pos_as_xyz
  1  'x, y, z'
loop_
 _atom_site_type_symbol
 _atom_site_label
 _atom_site_symmetry_multiplicity
 _atom_site_fract_x
 _atom_site_fract_y
 _atom_site_fract_z
 _atom_site_occupancy
  Li  Li0  1  0.50000000  0.56835700  0.75000000  1
  Li  Li1  1  0.50000000  0.19209000  0.75000000  1
  Li  Li2  1  0.50000000  0.43164300  0.25000000  1
  Li  Li3  1  0.50000000  0.80791000  0.25000000  1
  Li  Li4  1  0.00000000  0.06835700  0.75000000  1
  Li  Li5  1  0.00000000  0.69209000  0.75000000  1
  Li  Li6  1  0.00000000  0.93164300  0.25000000  1
  Li  Li7  1  0.00000000  0.30791000  0.25000000  1
  Fe  Fe8  1  0.74663750  0.91398850  0.81267800  1
  Fe  Fe9  1  0.74663750  0.08601150  0.31267800  1
  Fe  Fe10  1  0.25336250  0.91398850  0.68732200  1
  Fe  Fe11  1  0.25336250  0.08601150  0.18732200  1
  Fe  Fe12  1  0.24663750  0.41398850  0.81267800  1
  Fe  Fe13  1  0.24663750  0.58601150  0.31267800  1
  Fe  Fe14  1  0.75336250  0.41398850  0.68732200  1
  Fe  Fe15  1  0.75336250  0.58601150  0.18732200  1
  F  F16  1  0.42608700  0.36445500  0.88467400  1
  F  F17  1  0.42608700  0.63554500  0.38467400  1
  F  F18  1  0.18650550  0.15904150  0.78454400  1
  F  F19  1  0.63284100  0.04948300  0.93959700  1
  F  F20  1  0.18650550  0.84095850  0.28454400  1
  F  F21  1  0.63284100  0.95051700  0.43959700  1
  F  F22  1  0.36715900  0.04948300  0.56040300  1
  F  F23  1  0.81349450  0.15904150  0.71545600  1
  F  F24  1  0.36715900  0.95051700  0.06040300  1
  F  F25  1  0.81349450  0.84095850  0.21545600  1
  F  F26  1  0.57391300  0.36445500  0.61532600  1
  F  F27  1  0.57391300  0.63554500  0.11532600  1
  F  F28  1  0.92608700  0.86445500  0.88467400  1
  F  F29  1  0.92608700  0.13554500  0.38467400  1
  F  F30  1  0.68650550  0.65904150  0.78454400  1
  F  F31  1  0.13284100  0.54948300  0.93959700  1
  F  F32  1  0.68650550  0.34095850  0.28454400  1
  F  F33  1  0.13284100  0.45051700  0.43959700  1
  F  F34  1  0.86715900  0.54948300  0.56040300  1
  F  F35  1  0.31349450  0.65904150  0.71545600  1
  F  F36  1  0.86715900  0.45051700  0.06040300  1
  F  F37  1  0.31349450  0.34095850  0.21545600  1
  F  F38  1  0.07391300  0.86445500  0.61532600  1
  F  F39  1  0.07391300  0.13554500  0.11532600  1
