# generated using pymatgen
data_V2OF5
_symmetry_space_group_name_H-M   'P 1'
_cell_length_a   5.41336993
_cell_length_b   5.25307000
_cell_length_c   7.60928221
_cell_angle_alpha   90.00000000
_cell_angle_beta   92.54403433
_cell_angle_gamma   90.00000000
_symmetry_Int_Tables_number   1
_chemical_formula_structural   V2OF5
_chemical_formula_sum   'V4 O2 F10'
_cell_volume   216.17045434
_cell_formula_units_Z   2
loop_
 _symmetry_equiv_pos_site_id
 _symmetry_equiv_pos_as_xyz
  1  'x, y, z'
loop_
 _atom_site_type_symbol
 _atom_site_label
 _atom_site_symmetry_multiplicity
 _atom_site_fract_x
 _atom_site_fract_y
 _atom_site_fract_z
 _atom_site_occupancy
  V  V0  1  0.47594000  0.01757450  0.49467300  1
  V  V1  1  0.47594000  0.98242550  0.99467300  1
  V  V2  1  0.00048200  0.49956850  0.50031200  1
  V  V3  1  0.00048200  0.50043150  0.00031200  1
  O  O4  1  0.22222700  0.79971750  0.96314900  1
  O  O5  1  0.22222700  0.20028250  0.46314900  1
  F  F6  1  0.00090800  0.59709350  0.25075400  1
  F  F7  1  0.30007500  0.70262950  0.54956400  1
  F  F8  1  0.70751000  0.70620750  0.94846400  1
  F  F9  1  0.78274300  0.80079650  0.54298200  1
  F  F10  1  0.51013300  0.90483550  0.25010100  1
  F  F11  1  0.51013300  0.09516450  0.75010100  1
  F  F12  1  0.78274300  0.19920350  0.04298200  1
  F  F13  1  0.30007500  0.29737050  0.04956400  1
  F  F14  1  0.70751000  0.29379250  0.44846400  1
  F  F15  1  0.00090800  0.40290650  0.75075400  1
