# generated using pymatgen
data_VSO4
_symmetry_space_group_name_H-M   'P 1'
_cell_length_a   4.90537800
_cell_length_b   6.85221900
_cell_length_c   8.92380500
_cell_angle_alpha   90.00000000
_cell_angle_beta   90.00000000
_cell_angle_gamma   90.00000000
_symmetry_Int_Tables_number   1
_chemical_formula_structural   VSO4
_chemical_formula_sum   'V4 S4 O16'
_cell_volume   299.95339767
_cell_formula_units_Z   4
loop_
 _symmetry_equiv_pos_site_id
 _symmetry_equiv_pos_as_xyz
  1  'x, y, z'
loop_
 _atom_site_type_symbol
 _atom_site_label
 _atom_site_symmetry_multiplicity
 _atom_site_fract_x
 _atom_site_fract_y
 _atom_site_fract_z
 _atom_site_occupancy
  V  V0  1  0.50000000  0.50000000  0.50000000  1
  V  V1  1  0.00000000  0.50000000  0.00000000  1
  V  V2  1  0.50000000  0.00000000  0.50000000  1
  V  V3  1  0.00000000  0.00000000  0.00000000  1
  S  S4  1  0.98755700  0.25000000  0.67662700  1
  S  S5  1  0.48755700  0.75000000  0.82337300  1
  S  S6  1  0.51244300  0.25000000  0.17662700  1
  S  S7  1  0.01244300  0.75000000  0.32337300  1
  O  O8  1  0.27889500  0.25000000  0.62145000  1
  O  O9  1  0.77889500  0.75000000  0.87855000  1
  O  O10  1  0.22110500  0.25000000  0.12145000  1
  O  O11  1  0.72110500  0.75000000  0.37855000  1
  O  O12  1  0.48086800  0.75000000  0.65340800  1
  O  O13  1  0.98086800  0.25000000  0.84659200  1
  O  O14  1  0.01913200  0.75000000  0.15340800  1
  O  O15  1  0.51913200  0.25000000  0.34659200  1
  O  O16  1  0.85355900  0.07006050  0.62595400  1
  O  O17  1  0.85355900  0.42993950  0.62595400  1
  O  O18  1  0.35355900  0.92993950  0.87404600  1
  O  O19  1  0.35355900  0.57006050  0.87404600  1
  O  O20  1  0.64644100  0.07006050  0.12595400  1
  O  O21  1  0.64644100  0.42993950  0.12595400  1
  O  O22  1  0.14644100  0.57006050  0.37404600  1
  O  O23  1  0.14644100  0.92993950  0.37404600  1
