# generated using pymatgen
data_Li4FeSi2O7
_symmetry_space_group_name_H-M   'P 1'
_cell_length_a   9.61962143
_cell_length_b   4.55686203
_cell_length_c   6.85759910
_cell_angle_alpha   90.00000000
_cell_angle_beta   100.55345199
_cell_angle_gamma   90.00000000
_symmetry_Int_Tables_number   1
_chemical_formula_structural   Li4FeSi2O7
_chemical_formula_sum   'Li8 Fe2 Si4 O14'
_cell_volume   295.51993923
_cell_formula_units_Z   2
loop_
 _symmetry_equiv_pos_site_id
 _symmetry_equiv_pos_as_xyz
  1  'x, y, z'
loop_
 _atom_site_type_symbol
 _atom_site_label
 _atom_site_symmetry_multiplicity
 _atom_site_fract_x
 _atom_site_fract_y
 _atom_site_fract_z
 _atom_site_occupancy
  Li  Li0  1  0.35101462  0.48222412  0.56295625  1
  Li  Li1  1  0.14898538  0.98222412  0.43704375  1
  Li  Li2  1  0.28720937  0.99374962  0.85248675  1
  Li  Li3  1  0.21279063  0.49374962  0.14751325  1
  Li  Li4  1  0.85101462  0.98222412  0.56295625  1
  Li  Li5  1  0.64898538  0.48222412  0.43704375  1
  Li  Li6  1  0.78720937  0.49374962  0.85248675  1
  Li  Li7  1  0.71279063  0.99374962  0.14751325  1
  Fe  Fe8  1  0.00000000  0.99899975  0.00000000  1
  Fe  Fe9  1  0.50000000  0.49899975  0.00000000  1
  Si  Si10  1  0.42454900  0.00980575  0.29080400  1
  Si  Si11  1  0.07545100  0.50980575  0.70919600  1
  Si  Si12  1  0.92454900  0.50980575  0.29080400  1
  Si  Si13  1  0.57545100  0.00980575  0.70919600  1
  O  O14  1  0.00000000  0.31793650  0.50000000  1
  O  O15  1  0.44820037  0.21270212  0.77120675  1
  O  O16  1  0.05179963  0.71270212  0.22879325  1
  O  O17  1  0.36757962  0.77288137  0.11333325  1
  O  O18  1  0.13242038  0.27288137  0.88666675  1
  O  O19  1  0.29553913  0.20604737  0.34319025  1
  O  O20  1  0.20446087  0.70604737  0.65680975  1
  O  O21  1  0.50000000  0.81793650  0.50000000  1
  O  O22  1  0.94820037  0.71270212  0.77120675  1
  O  O23  1  0.55179963  0.21270212  0.22879325  1
  O  O24  1  0.86757962  0.27288137  0.11333325  1
  O  O25  1  0.63242038  0.77288137  0.88666675  1
  O  O26  1  0.79553912  0.70604737  0.34319025  1
  O  O27  1  0.70446088  0.20604737  0.65680975  1
