# generated using pymatgen
data_VZn2O4
_symmetry_space_group_name_H-M   'P 1'
_cell_length_a   6.00708583
_cell_length_b   6.02977200
_cell_length_c   8.58821772
_cell_angle_alpha   90.00000000
_cell_angle_beta   90.00000000
_cell_angle_gamma   90.00000000
_symmetry_Int_Tables_number   1
_chemical_formula_structural   VZn2O4
_chemical_formula_sum   'V4 Zn8 O16'
_cell_volume   311.07690835
_cell_formula_units_Z   4
loop_
 _symmetry_equiv_pos_site_id
 _symmetry_equiv_pos_as_xyz
  1  'x, y, z'
loop_
 _atom_site_type_symbol
 _atom_site_label
 _atom_site_symmetry_multiplicity
 _atom_site_fract_x
 _atom_site_fract_y
 _atom_site_fract_z
 _atom_site_occupancy
  V  V0  1  0.50000000  0.00000000  0.50000000  1
  V  V1  1  0.50000000  0.50000000  0.50000000  1
  V  V2  1  0.00000000  0.50000000  0.00000000  1
  V  V3  1  0.00000000  0.00000000  0.00000000  1
  Zn  Zn4  1  0.50000000  0.75000000  0.86541650  1
  Zn  Zn5  1  0.00000000  0.75000000  0.63458350  1
  Zn  Zn6  1  0.75000000  0.25000000  0.75000000  1
  Zn  Zn7  1  0.25000000  0.25000000  0.75000000  1
  Zn  Zn8  1  0.00000000  0.25000000  0.36541650  1
  Zn  Zn9  1  0.50000000  0.25000000  0.13458350  1
  Zn  Zn10  1  0.25000000  0.75000000  0.25000000  1
  Zn  Zn11  1  0.75000000  0.75000000  0.25000000  1
  O  O12  1  0.00000000  0.48855850  0.77789650  1
  O  O13  1  0.00000000  0.01144150  0.77789650  1
  O  O14  1  0.50000000  0.48855850  0.72210350  1
  O  O15  1  0.50000000  0.01144150  0.72210350  1
  O  O16  1  0.27604025  0.75000000  0.50375425  1
  O  O17  1  0.27604025  0.25000000  0.49624575  1
  O  O18  1  0.72395975  0.75000000  0.50375425  1
  O  O19  1  0.72395975  0.25000000  0.49624575  1
  O  O20  1  0.50000000  0.98855850  0.27789650  1
  O  O21  1  0.50000000  0.51144150  0.27789650  1
  O  O22  1  0.00000000  0.98855850  0.22210350  1
  O  O23  1  0.00000000  0.51144150  0.22210350  1
  O  O24  1  0.77604025  0.25000000  0.00375425  1
  O  O25  1  0.77604025  0.75000000  0.99624575  1
  O  O26  1  0.22395975  0.25000000  0.00375425  1
  O  O27  1  0.22395975  0.75000000  0.99624575  1
