# generated using pymatgen
data_Li5Mn3(PO4)4
_symmetry_space_group_name_H-M   'P 1'
_cell_length_a   4.77856651
_cell_length_b   6.00961200
_cell_length_c   10.54724653
_cell_angle_alpha   90.00000000
_cell_angle_beta   90.86574350
_cell_angle_gamma   90.00000000
_symmetry_Int_Tables_number   1
_chemical_formula_structural   Li5Mn3(PO4)4
_chemical_formula_sum   'Li5 Mn3 P4 O16'
_cell_volume   302.85418935
_cell_formula_units_Z   1
loop_
 _symmetry_equiv_pos_site_id
 _symmetry_equiv_pos_as_xyz
  1  'x, y, z'
loop_
 _atom_site_type_symbol
 _atom_site_label
 _atom_site_symmetry_multiplicity
 _atom_site_fract_x
 _atom_site_fract_y
 _atom_site_fract_z
 _atom_site_occupancy
  Li  Li0  1  0.99835500  0.25753400  0.01129300  1
  Li  Li1  1  0.99835500  0.74246600  0.01129300  1
  Li  Li2  1  0.49232900  0.74229300  0.49355200  1
  Li  Li3  1  0.49232900  0.25770700  0.49355200  1
  Li  Li4  1  0.98354600  0.50000000  0.27905400  1
  Mn  Mn5  1  0.01652600  0.00000000  0.72125300  1
  Mn  Mn6  1  0.50121500  0.00000000  0.22349100  1
  Mn  Mn7  1  0.51018800  0.50000000  0.78237400  1
  P  P8  1  0.07853300  0.50000000  0.58945600  1
  P  P9  1  0.42765600  0.50000000  0.09649300  1
  P  P10  1  0.58943200  0.00000000  0.90899000  1
  P  P11  1  0.90864800  0.00000000  0.40349900  1
  O  O12  1  0.19332400  0.50000000  0.45406900  1
  O  O13  1  0.21647400  0.29606900  0.66212600  1
  O  O14  1  0.21647400  0.70393100  0.66212600  1
  O  O15  1  0.22846200  0.00000000  0.39990400  1
  O  O16  1  0.26939600  0.00000000  0.90425100  1
  O  O17  1  0.29923200  0.28964100  0.16462400  1
  O  O18  1  0.29923200  0.71035900  0.16462400  1
  O  O19  1  0.29058100  0.50000000  0.96070600  1
  O  O20  1  0.71746200  0.00000000  0.04532700  1
  O  O21  1  0.72249600  0.79568700  0.83809000  1
  O  O22  1  0.72249600  0.20431300  0.83809000  1
  O  O23  1  0.74689000  0.50000000  0.09567200  1
  O  O24  1  0.75729900  0.50000000  0.59658600  1
  O  O25  1  0.76662100  0.79894900  0.33010200  1
  O  O26  1  0.76662100  0.20105100  0.33010200  1
  O  O27  1  0.78978900  0.00000000  0.53931700  1
