# generated using pymatgen
data_Na11Mn13O32
_symmetry_space_group_name_H-M   'P 1'
_cell_length_a   10.54464800
_cell_length_b   5.99451400
_cell_length_c   21.27492355
_cell_angle_alpha   90.00000000
_cell_angle_beta   101.42249094
_cell_angle_gamma   90.00000000
_symmetry_Int_Tables_number   1
_chemical_formula_structural   Na11Mn13O32
_chemical_formula_sum   'Na22 Mn26 O64'
_cell_volume   1318.15322524
_cell_formula_units_Z   2
loop_
 _symmetry_equiv_pos_site_id
 _symmetry_equiv_pos_as_xyz
  1  'x, y, z'
loop_
 _atom_site_type_symbol
 _atom_site_label
 _atom_site_symmetry_multiplicity
 _atom_site_fract_x
 _atom_site_fract_y
 _atom_site_fract_z
 _atom_site_occupancy
  Na  Na0  1  0.50000000  0.00000000  0.50000000  1
  Na  Na1  1  0.29102700  0.00000000  0.35224100  1
  Na  Na2  1  0.47629000  0.50000000  0.40995800  1
  Na  Na3  1  0.70897300  0.00000000  0.64775900  1
  Na  Na4  1  0.52371000  0.50000000  0.59004200  1
  Na  Na5  1  0.46311500  0.00000000  0.90405300  1
  Na  Na6  1  0.62309400  0.50000000  0.87009000  1
  Na  Na7  1  0.78516000  0.00000000  0.84090700  1
  Na  Na8  1  0.53688500  0.00000000  0.09594700  1
  Na  Na9  1  0.21484000  0.00000000  0.15909300  1
  Na  Na10  1  0.37690600  0.50000000  0.12991000  1
  Na  Na11  1  0.00000000  0.50000000  0.50000000  1
  Na  Na12  1  0.79102700  0.50000000  0.35224100  1
  Na  Na13  1  0.97629000  0.00000000  0.40995800  1
  Na  Na14  1  0.20897300  0.50000000  0.64775900  1
  Na  Na15  1  0.02371000  0.00000000  0.59004200  1
  Na  Na16  1  0.96311500  0.50000000  0.90405300  1
  Na  Na17  1  0.12309400  0.00000000  0.87009000  1
  Na  Na18  1  0.28516000  0.50000000  0.84090700  1
  Na  Na19  1  0.03688500  0.50000000  0.09594700  1
  Na  Na20  1  0.71484000  0.50000000  0.15909300  1
  Na  Na21  1  0.87690600  0.00000000  0.12991000  1
  Mn  Mn22  1  0.63792400  0.00000000  0.37968600  1
  Mn  Mn23  1  0.25000000  0.75000000  0.50000000  1
  Mn  Mn24  1  0.25000000  0.25000000  0.50000000  1
  Mn  Mn25  1  0.36207600  0.00000000  0.62031400  1
  Mn  Mn26  1  0.49536600  0.25251300  0.74041800  1
  Mn  Mn27  1  0.25000000  0.25000000  0.00000000  1
  Mn  Mn28  1  0.49536600  0.74748700  0.74041800  1
  Mn  Mn29  1  0.74334700  0.50000000  0.74124000  1
  Mn  Mn30  1  0.00000000  0.00000000  0.00000000  1
  Mn  Mn31  1  0.50463400  0.25251300  0.25958200  1
  Mn  Mn32  1  0.25000000  0.75000000  0.00000000  1
  Mn  Mn33  1  0.25665300  0.50000000  0.25876000  1
  Mn  Mn34  1  0.50463400  0.74748700  0.25958200  1
  Mn  Mn35  1  0.13792400  0.50000000  0.37968600  1
  Mn  Mn36  1  0.75000000  0.25000000  0.50000000  1
  Mn  Mn37  1  0.75000000  0.75000000  0.50000000  1
  Mn  Mn38  1  0.86207600  0.50000000  0.62031400  1
  Mn  Mn39  1  0.99536600  0.75251300  0.74041800  1
  Mn  Mn40  1  0.75000000  0.75000000  0.00000000  1
  Mn  Mn41  1  0.99536600  0.24748700  0.74041800  1
  Mn  Mn42  1  0.24334700  0.00000000  0.74124000  1
  Mn  Mn43  1  0.50000000  0.50000000  0.00000000  1
  Mn  Mn44  1  0.00463400  0.75251300  0.25958200  1
  Mn  Mn45  1  0.75000000  0.25000000  0.00000000  1
  Mn  Mn46  1  0.75665300  0.00000000  0.25876000  1
  Mn  Mn47  1  0.00463400  0.24748700  0.25958200  1
  O  O48  1  0.59705200  0.78014600  0.43386300  1
  O  O49  1  0.70148200  0.00000000  0.54515600  1
  O  O50  1  0.30159700  0.50000000  0.44747400  1
  O  O51  1  0.29851800  0.00000000  0.45484400  1
  O  O52  1  0.40294800  0.78014600  0.56613700  1
  O  O53  1  0.40294800  0.21985400  0.56613700  1
  O  O54  1  0.67012750  0.72842050  0.78623900  1
  O  O55  1  0.81856100  0.70968600  0.68707500  1
  O  O56  1  0.59705200  0.21985400  0.43386300  1
  O  O57  1  0.52692200  0.00000000  0.68407600  1
  O  O58  1  0.43127600  0.00000000  0.78901500  1
  O  O59  1  0.79690100  0.50000000  0.95306500  1
  O  O60  1  0.44509500  0.50000000  0.78596500  1
  O  O61  1  0.69840300  0.50000000  0.55252600  1
  O  O62  1  0.56056300  0.50000000  0.69373600  1
  O  O63  1  0.67012750  0.27157950  0.78623900  1
  O  O64  1  0.42496300  0.27964400  0.04732800  1
  O  O65  1  0.81856100  0.29031400  0.68707500  1
  O  O66  1  0.57503700  0.72035600  0.95267200  1
  O  O67  1  0.57503700  0.27964400  0.95267200  1
  O  O68  1  0.18627700  0.00000000  0.04993500  1
  O  O69  1  0.20309900  0.50000000  0.04693500  1
  O  O70  1  0.56872400  0.00000000  0.21098500  1
  O  O71  1  0.47307800  0.00000000  0.31592400  1
  O  O72  1  0.81372300  0.00000000  0.95006500  1
  O  O73  1  0.18143900  0.29031400  0.31292500  1
  O  O74  1  0.18143900  0.70968600  0.31292500  1
  O  O75  1  0.42496300  0.72035600  0.04732800  1
  O  O76  1  0.32987250  0.27157950  0.21376100  1
  O  O77  1  0.32987250  0.72842050  0.21376100  1
  O  O78  1  0.55490500  0.50000000  0.21403500  1
  O  O79  1  0.43943700  0.50000000  0.30626400  1
  O  O80  1  0.09705200  0.28014600  0.43386300  1
  O  O81  1  0.20148200  0.50000000  0.54515600  1
  O  O82  1  0.80159700  0.00000000  0.44747400  1
  O  O83  1  0.79851800  0.50000000  0.45484400  1
  O  O84  1  0.90294800  0.28014600  0.56613700  1
  O  O85  1  0.90294800  0.71985400  0.56613700  1
  O  O86  1  0.17012750  0.22842050  0.78623900  1
  O  O87  1  0.31856100  0.20968600  0.68707500  1
  O  O88  1  0.09705200  0.71985400  0.43386300  1
  O  O89  1  0.02692200  0.50000000  0.68407600  1
  O  O90  1  0.93127600  0.50000000  0.78901500  1
  O  O91  1  0.29690100  0.00000000  0.95306500  1
  O  O92  1  0.94509500  0.00000000  0.78596500  1
  O  O93  1  0.19840300  0.00000000  0.55252600  1
  O  O94  1  0.06056300  0.00000000  0.69373600  1
  O  O95  1  0.17012750  0.77157950  0.78623900  1
  O  O96  1  0.92496300  0.77964400  0.04732800  1
  O  O97  1  0.31856100  0.79031400  0.68707500  1
  O  O98  1  0.07503700  0.22035600  0.95267200  1
  O  O99  1  0.07503700  0.77964400  0.95267200  1
  O  O100  1  0.68627700  0.50000000  0.04993500  1
  O  O101  1  0.70309900  0.00000000  0.04693500  1
  O  O102  1  0.06872400  0.50000000  0.21098500  1
  O  O103  1  0.97307800  0.50000000  0.31592400  1
  O  O104  1  0.31372300  0.50000000  0.95006500  1
  O  O105  1  0.68143900  0.79031400  0.31292500  1
  O  O106  1  0.68143900  0.20968600  0.31292500  1
  O  O107  1  0.92496300  0.22035600  0.04732800  1
  O  O108  1  0.82987250  0.77157950  0.21376100  1
  O  O109  1  0.82987250  0.22842050  0.21376100  1
  O  O110  1  0.05490500  0.00000000  0.21403500  1
  O  O111  1  0.93943700  0.00000000  0.30626400  1
