# generated using pymatgen
data_V4O3F5
_symmetry_space_group_name_H-M   'P 1'
_cell_length_a   6.22909000
_cell_length_b   6.57993800
_cell_length_c   7.02246400
_cell_angle_alpha   90.00000000
_cell_angle_beta   90.00000000
_cell_angle_gamma   90.00000000
_symmetry_Int_Tables_number   1
_chemical_formula_structural   V4O3F5
_chemical_formula_sum   'V8 O6 F10'
_cell_volume   287.82991453
_cell_formula_units_Z   2
loop_
 _symmetry_equiv_pos_site_id
 _symmetry_equiv_pos_as_xyz
  1  'x, y, z'
loop_
 _atom_site_type_symbol
 _atom_site_label
 _atom_site_symmetry_multiplicity
 _atom_site_fract_x
 _atom_site_fract_y
 _atom_site_fract_z
 _atom_site_occupancy
  V  V0  1  0.23064600  0.48992000  0.00000000  1
  V  V1  1  0.26935400  0.98992000  0.50000000  1
  V  V2  1  0.00000000  0.52776700  0.50000000  1
  V  V3  1  0.00000000  0.99124500  0.00000000  1
  V  V4  1  0.73064600  0.98992000  0.50000000  1
  V  V5  1  0.76935400  0.48992000  0.00000000  1
  V  V6  1  0.50000000  0.02776700  0.00000000  1
  V  V7  1  0.50000000  0.49124500  0.50000000  1
  O  O8  1  0.00000000  0.81287000  0.50000000  1
  O  O9  1  0.00000000  0.28193900  0.00000000  1
  O  O10  1  0.00000000  0.70224700  0.00000000  1
  O  O11  1  0.50000000  0.31287000  0.00000000  1
  O  O12  1  0.50000000  0.78193900  0.50000000  1
  O  O13  1  0.50000000  0.20224700  0.50000000  1
  F  F14  1  0.75543200  0.49906200  0.30613900  1
  F  F15  1  0.24456800  0.49906200  0.30613900  1
  F  F16  1  0.50000000  0.70784300  0.00000000  1
  F  F17  1  0.25543200  0.99906200  0.19386100  1
  F  F18  1  0.74456800  0.99906200  0.19386100  1
  F  F19  1  0.25543200  0.99906200  0.80613900  1
  F  F20  1  0.74456800  0.99906200  0.80613900  1
  F  F21  1  0.00000000  0.20784300  0.50000000  1
  F  F22  1  0.75543200  0.49906200  0.69386100  1
  F  F23  1  0.24456800  0.49906200  0.69386100  1
