# generated using pymatgen
data_TaFeO4
_symmetry_space_group_name_H-M   'P 1'
_cell_length_a   4.68557040
_cell_length_b   5.69965600
_cell_length_c   5.06975557
_cell_angle_alpha   90.00000000
_cell_angle_beta   90.07899982
_cell_angle_gamma   90.00000000
_symmetry_Int_Tables_number   1
_chemical_formula_structural   TaFeO4
_chemical_formula_sum   'Ta2 Fe2 O8'
_cell_volume   135.39347050
_cell_formula_units_Z   2
loop_
 _symmetry_equiv_pos_site_id
 _symmetry_equiv_pos_as_xyz
  1  'x, y, z'
loop_
 _atom_site_type_symbol
 _atom_site_label
 _atom_site_symmetry_multiplicity
 _atom_site_fract_x
 _atom_site_fract_y
 _atom_site_fract_z
 _atom_site_occupancy
  Ta  Ta0  1  0.00000000  0.17483750  0.75000000  1
  Ta  Ta1  1  0.00000000  0.82516250  0.25000000  1
  Fe  Fe2  1  0.50000000  0.66108050  0.75000000  1
  Fe  Fe3  1  0.50000000  0.33891950  0.25000000  1
  O  O4  1  0.73118600  0.38176450  0.91455200  1
  O  O5  1  0.73118600  0.61823550  0.41455200  1
  O  O6  1  0.26881400  0.38176450  0.58544800  1
  O  O7  1  0.26881400  0.61823550  0.08544800  1
  O  O8  1  0.77614200  0.11458000  0.42203550  1
  O  O9  1  0.77614200  0.88542000  0.92203550  1
  O  O10  1  0.22385800  0.11458000  0.07796450  1
  O  O11  1  0.22385800  0.88542000  0.57796450  1
