# generated using pymatgen
data_Li2MnO2F
_symmetry_space_group_name_H-M   'P 1'
_cell_length_a   5.19237377
_cell_length_b   8.94613300
_cell_length_c   9.84703863
_cell_angle_alpha   90.00000000
_cell_angle_beta   99.66763849
_cell_angle_gamma   90.00000000
_symmetry_Int_Tables_number   1
_chemical_formula_structural   Li2MnO2F
_chemical_formula_sum   'Li16 Mn8 O16 F8'
_cell_volume   450.91541515
_cell_formula_units_Z   8
loop_
 _symmetry_equiv_pos_site_id
 _symmetry_equiv_pos_as_xyz
  1  'x, y, z'
loop_
 _atom_site_type_symbol
 _atom_site_label
 _atom_site_symmetry_multiplicity
 _atom_site_fract_x
 _atom_site_fract_y
 _atom_site_fract_z
 _atom_site_occupancy
  Li  Li0  1  0.25000000  0.25000000  0.00000000  1
  Li  Li1  1  0.75000000  0.25000000  0.50000000  1
  Li  Li2  1  0.00000000  0.73666850  0.75000000  1
  Li  Li3  1  0.00000000  0.26333150  0.25000000  1
  Li  Li4  1  0.73649900  0.09622650  0.00487800  1
  Li  Li5  1  0.76350100  0.40377350  0.99512200  1
  Li  Li6  1  0.26350100  0.09622650  0.49512200  1
  Li  Li7  1  0.23649900  0.40377350  0.50487800  1
  Li  Li8  1  0.75000000  0.75000000  0.00000000  1
  Li  Li9  1  0.25000000  0.75000000  0.50000000  1
  Li  Li10  1  0.50000000  0.23666850  0.75000000  1
  Li  Li11  1  0.50000000  0.76333150  0.25000000  1
  Li  Li12  1  0.23649900  0.59622650  0.00487800  1
  Li  Li13  1  0.26350100  0.90377350  0.99512200  1
  Li  Li14  1  0.76350100  0.59622650  0.49512200  1
  Li  Li15  1  0.73649900  0.90377350  0.50487800  1
  Mn  Mn16  1  0.00000000  0.58563750  0.25000000  1
  Mn  Mn17  1  0.00000000  0.90875850  0.25000000  1
  Mn  Mn18  1  0.00000000  0.41436250  0.75000000  1
  Mn  Mn19  1  0.00000000  0.09124150  0.75000000  1
  Mn  Mn20  1  0.50000000  0.08563750  0.25000000  1
  Mn  Mn21  1  0.50000000  0.40875850  0.25000000  1
  Mn  Mn22  1  0.50000000  0.91436250  0.75000000  1
  Mn  Mn23  1  0.50000000  0.59124150  0.75000000  1
  O  O24  1  0.15035150  0.42956500  0.14448900  1
  O  O25  1  0.15035150  0.57043500  0.64448900  1
  O  O26  1  0.84964850  0.57043500  0.85551100  1
  O  O27  1  0.84964850  0.42956500  0.35551100  1
  O  O28  1  0.88971950  0.25877500  0.86757300  1
  O  O29  1  0.38971950  0.24122500  0.36757300  1
  O  O30  1  0.61028050  0.24122500  0.13242700  1
  O  O31  1  0.11028050  0.25877500  0.63242700  1
  O  O32  1  0.65035150  0.92956500  0.14448900  1
  O  O33  1  0.65035150  0.07043500  0.64448900  1
  O  O34  1  0.34964850  0.07043500  0.85551100  1
  O  O35  1  0.34964850  0.92956500  0.35551100  1
  O  O36  1  0.38971950  0.75877500  0.86757300  1
  O  O37  1  0.88971950  0.74122500  0.36757300  1
  O  O38  1  0.11028050  0.74122500  0.13242700  1
  O  O39  1  0.61028050  0.75877500  0.63242700  1
  F  F40  1  0.10820600  0.08425050  0.11611500  1
  F  F41  1  0.10820600  0.91574950  0.61611500  1
  F  F42  1  0.89179400  0.91574950  0.88388500  1
  F  F43  1  0.89179400  0.08425050  0.38388500  1
  F  F44  1  0.60820600  0.58425050  0.11611500  1
  F  F45  1  0.60820600  0.41574950  0.61611500  1
  F  F46  1  0.39179400  0.41574950  0.88388500  1
  F  F47  1  0.39179400  0.58425050  0.38388500  1
