# generated using pymatgen
data_V2Fe3Te(PO4)6
_symmetry_space_group_name_H-M   'P 1'
_cell_length_a   8.74366364
_cell_length_b   8.74366364
_cell_length_c   20.90957600
_cell_angle_alpha   90.00000000
_cell_angle_beta   90.00000000
_cell_angle_gamma   120.00000000
_symmetry_Int_Tables_number   1
_chemical_formula_structural   V2Fe3Te(PO4)6
_chemical_formula_sum   'V6 Fe9 Te3 P18 O72'
_cell_volume   1384.40367286
_cell_formula_units_Z   3
loop_
 _symmetry_equiv_pos_site_id
 _symmetry_equiv_pos_as_xyz
  1  'x, y, z'
loop_
 _atom_site_type_symbol
 _atom_site_label
 _atom_site_symmetry_multiplicity
 _atom_site_fract_x
 _atom_site_fract_y
 _atom_site_fract_z
 _atom_site_occupancy
  V  V0  1  0.33333333  0.66666667  0.66884367  1
  V  V1  1  0.33333333  0.66666667  0.16535967  1
  V  V2  1  0.00000000  0.00000000  0.00217700  1
  V  V3  1  0.00000000  0.00000000  0.49869300  1
  V  V4  1  0.66666667  0.33333333  0.33551033  1
  V  V5  1  0.66666667  0.33333333  0.83202633  1
  Fe  Fe6  1  0.33333333  0.66666667  0.01973267  1
  Fe  Fe7  1  0.33333333  0.66666667  0.81333867  1
  Fe  Fe8  1  0.33333333  0.66666667  0.31175667  1
  Fe  Fe9  1  0.00000000  0.00000000  0.35306600  1
  Fe  Fe10  1  0.00000000  0.00000000  0.14667200  1
  Fe  Fe11  1  0.00000000  0.00000000  0.64509000  1
  Fe  Fe12  1  0.66666667  0.33333333  0.68639933  1
  Fe  Fe13  1  0.66666667  0.33333333  0.48000533  1
  Fe  Fe14  1  0.66666667  0.33333333  0.97842333  1
  Te  Te15  1  0.33333333  0.66666667  0.51883167  1
  Te  Te16  1  0.00000000  0.00000000  0.85216500  1
  Te  Te17  1  0.66666667  0.33333333  0.18549833  1
  P  P18  1  0.66650300  0.63818000  0.08089800  1
  P  P19  1  0.97167700  0.33349700  0.08089800  1
  P  P20  1  0.36182000  0.02832300  0.08089800  1
  P  P21  1  0.28942667  0.29667633  0.25056433  1
  P  P22  1  0.70332367  0.99275033  0.25056433  1
  P  P23  1  0.00724967  0.71057333  0.25056433  1
  P  P24  1  0.33316967  0.97151333  0.41423133  1
  P  P25  1  0.63834367  0.66683033  0.41423133  1
  P  P26  1  0.02848667  0.36165633  0.41423133  1
  P  P27  1  0.95609333  0.63000967  0.58389767  1
  P  P28  1  0.36999033  0.32608367  0.58389767  1
  P  P29  1  0.67391633  0.04390667  0.58389767  1
  P  P30  1  0.99983633  0.30484667  0.74756467  1
  P  P31  1  0.30501033  0.00016367  0.74756467  1
  P  P32  1  0.69515333  0.69498967  0.74756467  1
  P  P33  1  0.62276000  0.96334300  0.91723100  1
  P  P34  1  0.03665700  0.65941700  0.91723100  1
  P  P35  1  0.34058300  0.37724000  0.91723100  1
  O  O36  1  0.53212500  0.67383300  0.35783700  1
  O  O37  1  0.14170800  0.46787500  0.35783700  1
  O  O38  1  0.32616700  0.85829200  0.35783700  1
  O  O39  1  0.83275033  0.82496067  0.07365567  1
  O  O40  1  0.67501600  0.55409000  0.14519700  1
  O  O41  1  0.50155833  0.66048167  0.08938567  1
  O  O42  1  0.99221033  0.16724967  0.07365567  1
  O  O43  1  0.15892333  0.49844167  0.08938567  1
  O  O44  1  0.20316300  0.19245800  0.18966700  1
  O  O45  1  0.33951833  0.84107667  0.08938567  1
  O  O46  1  0.47973833  0.31918967  0.26254167  1
  O  O47  1  0.80754200  0.01070500  0.18966700  1
  O  O48  1  0.87907400  0.32498400  0.14519700  1
  O  O49  1  0.17503933  0.00778967  0.07365567  1
  O  O50  1  0.31954067  0.48753333  0.24077733  1
  O  O51  1  0.44591000  0.12092600  0.14519700  1
  O  O52  1  0.51246667  0.83200733  0.24077733  1
  O  O53  1  0.68081033  0.16054867  0.26254167  1
  O  O54  1  0.16799267  0.68045933  0.24077733  1
  O  O55  1  0.98929500  0.79683700  0.18966700  1
  O  O56  1  0.83945133  0.52026167  0.26254167  1
  O  O57  1  0.35505167  0.48261133  0.97685533  1
  O  O58  1  0.51738867  0.87244033  0.97685533  1
  O  O59  1  0.12755967  0.64494833  0.97685533  1
  O  O60  1  0.19879167  0.00716633  0.69117033  1
  O  O61  1  0.80837467  0.80120833  0.69117033  1
  O  O62  1  0.99283367  0.19162533  0.69117033  1
  O  O63  1  0.49941700  0.15829400  0.40698900  1
  O  O64  1  0.34168267  0.88742333  0.47853033  1
  O  O65  1  0.16822500  0.99381500  0.42271900  1
  O  O66  1  0.65887700  0.50058300  0.40698900  1
  O  O67  1  0.82559000  0.83177500  0.42271900  1
  O  O68  1  0.86982967  0.52579133  0.52300033  1
  O  O69  1  0.00618500  0.17441000  0.42271900  1
  O  O70  1  0.14640500  0.65252300  0.59587500  1
  O  O71  1  0.47420867  0.34403833  0.52300033  1
  O  O72  1  0.54574067  0.65831733  0.47853033  1
  O  O73  1  0.84170600  0.34112300  0.40698900  1
  O  O74  1  0.98620733  0.82086667  0.57411067  1
  O  O75  1  0.11257667  0.45425933  0.47853033  1
  O  O76  1  0.17913333  0.16534067  0.57411067  1
  O  O77  1  0.34747700  0.49388200  0.59587500  1
  O  O78  1  0.83465933  0.01379267  0.57411067  1
  O  O79  1  0.65596167  0.13017033  0.52300033  1
  O  O80  1  0.50611800  0.85359500  0.59587500  1
  O  O81  1  0.02171833  0.81594467  0.31018867  1
  O  O82  1  0.18405533  0.20577367  0.31018867  1
  O  O83  1  0.79422633  0.97828167  0.31018867  1
  O  O84  1  0.86545833  0.34049967  0.02450367  1
  O  O85  1  0.47504133  0.13454167  0.02450367  1
  O  O86  1  0.65950033  0.52495867  0.02450367  1
  O  O87  1  0.16608367  0.49162733  0.74032233  1
  O  O88  1  0.00834933  0.22075667  0.81186367  1
  O  O89  1  0.83489167  0.32714833  0.75605233  1
  O  O90  1  0.32554367  0.83391633  0.74032233  1
  O  O91  1  0.49225667  0.16510833  0.75605233  1
  O  O92  1  0.53649633  0.85912467  0.85633367  1
  O  O93  1  0.67285167  0.50774333  0.75605233  1
  O  O94  1  0.81307167  0.98585633  0.92920833  1
  O  O95  1  0.14087533  0.67737167  0.85633367  1
  O  O96  1  0.21240733  0.99165067  0.81186367  1
  O  O97  1  0.50837267  0.67445633  0.74032233  1
  O  O98  1  0.65287400  0.15420000  0.90744400  1
  O  O99  1  0.77924333  0.78759267  0.81186367  1
  O  O100  1  0.84580000  0.49867400  0.90744400  1
  O  O101  1  0.01414367  0.82721533  0.92920833  1
  O  O102  1  0.50132600  0.34712600  0.90744400  1
  O  O103  1  0.32262833  0.46350367  0.85633367  1
  O  O104  1  0.17278467  0.18692833  0.92920833  1
  O  O105  1  0.68838500  0.14927800  0.64352200  1
  O  O106  1  0.85072200  0.53910700  0.64352200  1
  O  O107  1  0.46089300  0.31161500  0.64352200  1
