# generated using pymatgen
data_Cr3Ni(SO4)6
_symmetry_space_group_name_H-M   'P 1'
_cell_length_a   8.29455909
_cell_length_b   8.29455909
_cell_length_c   22.30180465
_cell_angle_alpha   90.00000000
_cell_angle_beta   90.00000000
_cell_angle_gamma   120.00000000
_symmetry_Int_Tables_number   1
_chemical_formula_structural   Cr3Ni(SO4)6
_chemical_formula_sum   'Cr9 Ni3 S18 O72'
_cell_volume   1328.79274904
_cell_formula_units_Z   3
loop_
 _symmetry_equiv_pos_site_id
 _symmetry_equiv_pos_as_xyz
  1  'x, y, z'
loop_
 _atom_site_type_symbol
 _atom_site_label
 _atom_site_symmetry_multiplicity
 _atom_site_fract_x
 _atom_site_fract_y
 _atom_site_fract_z
 _atom_site_occupancy
  Cr  Cr0  1  0.33333333  0.66666667  0.02257567  1
  Cr  Cr1  1  0.33333333  0.66666667  0.31093767  1
  Cr  Cr2  1  0.66666667  0.33333333  0.18273533  1
  Cr  Cr3  1  0.00000000  0.00000000  0.35590900  1
  Cr  Cr4  1  0.00000000  0.00000000  0.64427100  1
  Cr  Cr5  1  0.33333333  0.66666667  0.51606867  1
  Cr  Cr6  1  0.66666667  0.33333333  0.68924233  1
  Cr  Cr7  1  0.66666667  0.33333333  0.97760433  1
  Cr  Cr8  1  0.00000000  0.00000000  0.84940200  1
  Ni  Ni9  1  0.00000000  0.00000000  0.14996700  1
  Ni  Ni10  1  0.66666667  0.33333333  0.48330033  1
  Ni  Ni11  1  0.33333333  0.66666667  0.81663367  1
  S  S12  1  0.95610333  0.33583967  0.08392267  1
  S  S13  1  0.28831867  0.29157333  0.24934833  1
  S  S14  1  0.00325467  0.71168133  0.24934833  1
  S  S15  1  0.66416033  0.62026367  0.08392267  1
  S  S16  1  0.37973633  0.04389667  0.08392267  1
  S  S17  1  0.70842667  0.99674533  0.24934833  1
  S  S18  1  0.62277000  0.66917300  0.41725600  1
  S  S19  1  0.95498533  0.62490667  0.58268167  1
  S  S20  1  0.66992133  0.04501467  0.58268167  1
  S  S21  1  0.33082700  0.95359700  0.41725600  1
  S  S22  1  0.04640300  0.37723000  0.41725600  1
  S  S23  1  0.37509333  0.33007867  0.58268167  1
  S  S24  1  0.28943667  0.00250633  0.75058933  1
  S  S25  1  0.62165200  0.95824000  0.91601500  1
  S  S26  1  0.33658800  0.37834800  0.91601500  1
  S  S27  1  0.99749367  0.28693033  0.75058933  1
  S  S28  1  0.71306967  0.71056333  0.75058933  1
  S  S29  1  0.04176000  0.66341200  0.91601500  1
  O  O30  1  0.99172967  0.79220633  0.30736533  1
  O  O31  1  0.80047667  0.00827033  0.30736533  1
  O  O32  1  0.91308933  0.14599567  0.09735367  1
  O  O33  1  0.89196100  0.41692100  0.13196300  1
  O  O34  1  0.14768867  0.23191533  0.20155133  1
  O  O35  1  0.81169600  0.56043700  0.23510100  1
  O  O36  1  0.20779367  0.19952333  0.30736533  1
  O  O37  1  0.15957167  0.46267033  0.07829033  1
  O  O38  1  0.43956300  0.25125900  0.23510100  1
  O  O39  1  0.12575900  0.62902200  0.25615400  1
  O  O40  1  0.37097800  0.49673700  0.25615400  1
  O  O41  1  0.08422667  0.85231133  0.20155133  1
  O  O42  1  0.58307900  0.47504000  0.13196300  1
  O  O43  1  0.30309867  0.84042833  0.07829033  1
  O  O44  1  0.53732967  0.69690133  0.07829033  1
  O  O45  1  0.23290633  0.08691067  0.09735367  1
  O  O46  1  0.50326300  0.87424100  0.25615400  1
  O  O47  1  0.46565300  0.13318800  0.02576400  1
  O  O48  1  0.85400433  0.76709367  0.09735367  1
  O  O49  1  0.52496000  0.10803900  0.13196300  1
  O  O50  1  0.76808467  0.91577333  0.20155133  1
  O  O51  1  0.74874100  0.18830400  0.23510100  1
  O  O52  1  0.86681200  0.33246500  0.02576400  1
  O  O53  1  0.66753500  0.53434700  0.02576400  1
  O  O54  1  0.65839633  0.12553967  0.64069867  1
  O  O55  1  0.46714333  0.34160367  0.64069867  1
  O  O56  1  0.57975600  0.47932900  0.43068700  1
  O  O57  1  0.55862767  0.75025433  0.46529633  1
  O  O58  1  0.81435533  0.56524867  0.53488467  1
  O  O59  1  0.47836267  0.89377033  0.56843433  1
  O  O60  1  0.87446033  0.53285667  0.64069867  1
  O  O61  1  0.82623833  0.79600367  0.41162367  1
  O  O62  1  0.10622967  0.58459233  0.56843433  1
  O  O63  1  0.79242567  0.96235533  0.58948733  1
  O  O64  1  0.03764467  0.83007033  0.58948733  1
  O  O65  1  0.75089333  0.18564467  0.53488467  1
  O  O66  1  0.24974567  0.80837333  0.46529633  1
  O  O67  1  0.96976533  0.17376167  0.41162367  1
  O  O68  1  0.20399633  0.03023467  0.41162367  1
  O  O69  1  0.89957300  0.42024400  0.43068700  1
  O  O70  1  0.16992967  0.20757433  0.58948733  1
  O  O71  1  0.13231967  0.46652133  0.35909733  1
  O  O72  1  0.52067100  0.10042700  0.43068700  1
  O  O73  1  0.19162667  0.44137233  0.46529633  1
  O  O74  1  0.43475133  0.24910667  0.53488467  1
  O  O75  1  0.41540767  0.52163733  0.56843433  1
  O  O76  1  0.53347867  0.66579833  0.35909733  1
  O  O77  1  0.33420167  0.86768033  0.35909733  1
  O  O78  1  0.32506300  0.45887300  0.97403200  1
  O  O79  1  0.13381000  0.67493700  0.97403200  1
  O  O80  1  0.24642267  0.81266233  0.76402033  1
  O  O81  1  0.22529433  0.08358767  0.79862967  1
  O  O82  1  0.48102200  0.89858200  0.86821800  1
  O  O83  1  0.14502933  0.22710367  0.90176767  1
  O  O84  1  0.54112700  0.86619000  0.97403200  1
  O  O85  1  0.49290500  0.12933700  0.74495700  1
  O  O86  1  0.77289633  0.91792567  0.90176767  1
  O  O87  1  0.45909233  0.29568867  0.92282067  1
  O  O88  1  0.70431133  0.16340367  0.92282067  1
  O  O89  1  0.41756000  0.51897800  0.86821800  1
  O  O90  1  0.91641233  0.14170667  0.79862967  1
  O  O91  1  0.63643200  0.50709500  0.74495700  1
  O  O92  1  0.87066300  0.36356800  0.74495700  1
  O  O93  1  0.56623967  0.75357733  0.76402033  1
  O  O94  1  0.83659633  0.54090767  0.92282067  1
  O  O95  1  0.79898633  0.79985467  0.69243067  1
  O  O96  1  0.18733767  0.43376033  0.76402033  1
  O  O97  1  0.85829333  0.77470567  0.79862967  1
  O  O98  1  0.10141800  0.58244000  0.86821800  1
  O  O99  1  0.08207433  0.85497067  0.90176767  1
  O  O100  1  0.20014533  0.99913167  0.69243067  1
  O  O101  1  0.00086833  0.20101367  0.69243067  1
