# generated using pymatgen
data_Li3Mn2(SiO4)2
_symmetry_space_group_name_H-M   'P 1'
_cell_length_a   5.12562300
_cell_length_b   6.29582000
_cell_length_c   11.13237512
_cell_angle_alpha   90.00000000
_cell_angle_beta   90.08797893
_cell_angle_gamma   90.00000000
_symmetry_Int_Tables_number   1
_chemical_formula_structural   Li3Mn2(SiO4)2
_chemical_formula_sum   'Li6 Mn4 Si4 O16'
_cell_volume   359.24131947
_cell_formula_units_Z   2
loop_
 _symmetry_equiv_pos_site_id
 _symmetry_equiv_pos_as_xyz
  1  'x, y, z'
loop_
 _atom_site_type_symbol
 _atom_site_label
 _atom_site_symmetry_multiplicity
 _atom_site_fract_x
 _atom_site_fract_y
 _atom_site_fract_z
 _atom_site_occupancy
  Li  Li0  1  0.23608900  0.76040100  0.17841800  1
  Li  Li1  1  0.23608900  0.23959900  0.67841800  1
  Li  Li2  1  0.74256100  0.24511100  0.32522800  1
  Li  Li3  1  0.74283800  0.49455300  0.09121200  1
  Li  Li4  1  0.74283800  0.50544700  0.59121200  1
  Li  Li5  1  0.74256100  0.75488900  0.82522800  1
  Mn  Mn6  1  0.74195900  0.00240500  0.57855100  1
  Mn  Mn7  1  0.74195900  0.99759500  0.07855100  1
  Mn  Mn8  1  0.24941400  0.49772400  0.91467500  1
  Mn  Mn9  1  0.24941400  0.50227600  0.41467500  1
  Si  Si10  1  0.74234300  0.74723200  0.33348900  1
  Si  Si11  1  0.74234300  0.25276800  0.83348900  1
  Si  Si12  1  0.22972500  0.25332100  0.16588600  1
  Si  Si13  1  0.22972500  0.74667900  0.66588600  1
  O  O14  1  0.34264800  0.70812000  0.80372500  1
  O  O15  1  0.41997000  0.72138100  0.33211100  1
  O  O16  1  0.34980400  0.96854200  0.61652800  1
  O  O17  1  0.81195700  0.97044200  0.40014600  1
  O  O18  1  0.81195700  0.02955800  0.90014600  1
  O  O19  1  0.34980400  0.03145800  0.11652800  1
  O  O20  1  0.41997000  0.27861900  0.83211100  1
  O  O21  1  0.34264800  0.29188000  0.30372500  1
  O  O22  1  0.84586400  0.25550600  0.69231500  1
  O  O23  1  0.91044200  0.25413500  0.16646100  1
  O  O24  1  0.85241600  0.46783600  0.90818200  1
  O  O25  1  0.33407000  0.46128100  0.08436900  1
  O  O26  1  0.33407000  0.53871900  0.58436900  1
  O  O27  1  0.85241600  0.53216400  0.40818200  1
  O  O28  1  0.91044200  0.74586500  0.66646100  1
  O  O29  1  0.84586400  0.74449400  0.19231500  1
