# generated using pymatgen
data_LiVSiO4
_symmetry_space_group_name_H-M   'P 1'
_cell_length_a   13.98623394
_cell_length_b   13.98623394
_cell_length_c   9.51966264
_cell_angle_alpha   90.00000000
_cell_angle_beta   90.00000000
_cell_angle_gamma   120.00000000
_symmetry_Int_Tables_number   1
_chemical_formula_structural   LiVSiO4
_chemical_formula_sum   'Li18 V18 Si18 O72'
_cell_volume   1612.70067026
_cell_formula_units_Z   18
loop_
 _symmetry_equiv_pos_site_id
 _symmetry_equiv_pos_as_xyz
  1  'x, y, z'
loop_
 _atom_site_type_symbol
 _atom_site_label
 _atom_site_symmetry_multiplicity
 _atom_site_fract_x
 _atom_site_fract_y
 _atom_site_fract_z
 _atom_site_occupancy
  Li  Li0  1  0.19099667  0.98392933  0.74947833  1
  Li  Li1  1  0.20706733  0.19099667  0.25052167  1
  Li  Li2  1  0.98392933  0.79293267  0.25052167  1
  Li  Li3  1  0.01607067  0.20706733  0.74947833  1
  Li  Li4  1  0.79293267  0.80900333  0.74947833  1
  Li  Li5  1  0.80900333  0.01607067  0.25052167  1
  Li  Li6  1  0.85766333  0.31726267  0.08281167  1
  Li  Li7  1  0.87373400  0.52433000  0.58385500  1
  Li  Li8  1  0.65059600  0.12626600  0.58385500  1
  Li  Li9  1  0.68273733  0.54040067  0.08281167  1
  Li  Li10  1  0.45959933  0.14233667  0.08281167  1
  Li  Li11  1  0.47567000  0.34940400  0.58385500  1
  Li  Li12  1  0.52433000  0.65059600  0.41614500  1
  Li  Li13  1  0.54040067  0.85766333  0.91718833  1
  Li  Li14  1  0.31726267  0.45959933  0.91718833  1
  Li  Li15  1  0.34940400  0.87373400  0.41614500  1
  Li  Li16  1  0.12626600  0.47567000  0.41614500  1
  Li  Li17  1  0.14233667  0.68273733  0.91718833  1
  V  V18  1  0.44791733  0.13332867  0.42141367  1
  V  V19  1  0.13332867  0.68541133  0.57858633  1
  V  V20  1  0.31458867  0.44791733  0.57858633  1
  V  V21  1  0.68541133  0.55208267  0.42141367  1
  V  V22  1  0.86667133  0.31458867  0.42141367  1
  V  V23  1  0.55208267  0.86667133  0.57858633  1
  V  V24  1  0.11458400  0.46666200  0.75474700  1
  V  V25  1  0.79999533  0.01874467  0.91191967  1
  V  V26  1  0.98125533  0.78125067  0.91191967  1
  V  V27  1  0.35207800  0.88541600  0.75474700  1
  V  V28  1  0.53333800  0.64792200  0.75474700  1
  V  V29  1  0.21874933  0.20000467  0.91191967  1
  V  V30  1  0.78125067  0.79999533  0.08808033  1
  V  V31  1  0.46666200  0.35207800  0.24525300  1
  V  V32  1  0.64792200  0.11458400  0.24525300  1
  V  V33  1  0.01874467  0.21874933  0.08808033  1
  V  V34  1  0.20000467  0.98125533  0.08808033  1
  V  V35  1  0.88541600  0.53333800  0.24525300  1
  Si  Si36  1  0.18685133  0.98085267  0.42291767  1
  Si  Si37  1  0.20599867  0.18685133  0.57708233  1
  Si  Si38  1  0.98085267  0.79400133  0.57708233  1
  Si  Si39  1  0.01914733  0.20599867  0.42291767  1
  Si  Si40  1  0.79400133  0.81314867  0.42291767  1
  Si  Si41  1  0.81314867  0.01914733  0.57708233  1
  Si  Si42  1  0.85351800  0.31418600  0.75625100  1
  Si  Si43  1  0.87266533  0.52018467  0.91041567  1
  Si  Si44  1  0.64751933  0.12733467  0.91041567  1
  Si  Si45  1  0.68581400  0.53933200  0.75625100  1
  Si  Si46  1  0.46066800  0.14648200  0.75625100  1
  Si  Si47  1  0.47981533  0.35248067  0.91041567  1
  Si  Si48  1  0.52018467  0.64751933  0.08958433  1
  Si  Si49  1  0.53933200  0.85351800  0.24374900  1
  Si  Si50  1  0.31418600  0.46066800  0.24374900  1
  Si  Si51  1  0.35248067  0.87266533  0.08958433  1
  Si  Si52  1  0.12733467  0.47981533  0.08958433  1
  Si  Si53  1  0.14648200  0.68581400  0.24374900  1
  O  O54  1  0.44829933  0.20964767  0.25748767  1
  O  O55  1  0.20964767  0.76134833  0.74251233  1
  O  O56  1  0.30819600  0.99201400  0.43387000  1
  O  O57  1  0.99201400  0.68381800  0.56613000  1
  O  O58  1  0.12623433  0.93001067  0.27447567  1
  O  O59  1  0.10837133  0.90408867  0.55630567  1
  O  O60  1  0.31618200  0.30819600  0.56613000  1
  O  O61  1  0.20428267  0.10837133  0.44369433  1
  O  O62  1  0.19622367  0.12623433  0.72552433  1
  O  O63  1  0.93001067  0.80377633  0.72552433  1
  O  O64  1  0.90408867  0.79571733  0.44369433  1
  O  O65  1  0.23865167  0.44829933  0.74251233  1
  O  O66  1  0.76134833  0.55170067  0.25748767  1
  O  O67  1  0.09591133  0.20428267  0.55630567  1
  O  O68  1  0.06998933  0.19622367  0.27447567  1
  O  O69  1  0.80377633  0.87376567  0.27447567  1
  O  O70  1  0.79571733  0.89162867  0.55630567  1
  O  O71  1  0.68381800  0.69180400  0.43387000  1
  O  O72  1  0.89162867  0.09591133  0.44369433  1
  O  O73  1  0.87376567  0.06998933  0.72552433  1
  O  O74  1  0.00798600  0.31618200  0.43387000  1
  O  O75  1  0.69180400  0.00798600  0.56613000  1
  O  O76  1  0.79035233  0.23865167  0.25748767  1
  O  O77  1  0.55170067  0.79035233  0.74251233  1
  O  O78  1  0.11496600  0.54298100  0.59082100  1
  O  O79  1  0.87631433  0.09468167  0.07584567  1
  O  O80  1  0.97486267  0.32534733  0.76720333  1
  O  O81  1  0.65868067  0.01715133  0.89946333  1
  O  O82  1  0.79290100  0.26334400  0.60780900  1
  O  O83  1  0.77503800  0.23742200  0.88963900  1
  O  O84  1  0.98284867  0.64152933  0.89946333  1
  O  O85  1  0.87094933  0.44170467  0.77702767  1
  O  O86  1  0.86289033  0.45956767  0.05885767  1
  O  O87  1  0.59667733  0.13710967  0.05885767  1
  O  O88  1  0.57075533  0.12905067  0.77702767  1
  O  O89  1  0.90531833  0.78163267  0.07584567  1
  O  O90  1  0.42801500  0.88503400  0.59082100  1
  O  O91  1  0.76257800  0.53761600  0.88963900  1
  O  O92  1  0.73665600  0.52955700  0.60780900  1
  O  O93  1  0.47044300  0.20709900  0.60780900  1
  O  O94  1  0.46238400  0.22496200  0.88963900  1
  O  O95  1  0.35048467  0.02513733  0.76720333  1
  O  O96  1  0.55829533  0.42924467  0.77702767  1
  O  O97  1  0.54043233  0.40332267  0.05885767  1
  O  O98  1  0.67465267  0.64951533  0.76720333  1
  O  O99  1  0.35847067  0.34131933  0.89946333  1
  O  O100  1  0.45701900  0.57198500  0.59082100  1
  O  O101  1  0.21836733  0.12368567  0.07584567  1
  O  O102  1  0.78163267  0.87631433  0.92415433  1
  O  O103  1  0.54298100  0.42801500  0.40917900  1
  O  O104  1  0.64152933  0.65868067  0.10053667  1
  O  O105  1  0.32534733  0.35048467  0.23279667  1
  O  O106  1  0.45956767  0.59667733  0.94114233  1
  O  O107  1  0.44170467  0.57075533  0.22297233  1
  O  O108  1  0.64951533  0.97486267  0.23279667  1
  O  O109  1  0.53761600  0.77503800  0.11036100  1
  O  O110  1  0.52955700  0.79290100  0.39219100  1
  O  O111  1  0.26334400  0.47044300  0.39219100  1
  O  O112  1  0.23742200  0.46238400  0.11036100  1
  O  O113  1  0.57198500  0.11496600  0.40917900  1
  O  O114  1  0.09468167  0.21836733  0.92415433  1
  O  O115  1  0.42924467  0.87094933  0.22297233  1
  O  O116  1  0.40332267  0.86289033  0.94114233  1
  O  O117  1  0.13710967  0.54043233  0.94114233  1
  O  O118  1  0.12905067  0.55829533  0.22297233  1
  O  O119  1  0.01715133  0.35847067  0.10053667  1
  O  O120  1  0.22496200  0.76257800  0.11036100  1
  O  O121  1  0.20709900  0.73665600  0.39219100  1
  O  O122  1  0.34131933  0.98284867  0.10053667  1
  O  O123  1  0.02513733  0.67465267  0.23279667  1
  O  O124  1  0.12368567  0.90531833  0.92415433  1
  O  O125  1  0.88503400  0.45701900  0.40917900  1
