# generated using pymatgen
data_FePO4
_symmetry_space_group_name_H-M   'P 1'
_cell_length_a   8.66291224
_cell_length_b   8.66291224
_cell_length_c   20.34782844
_cell_angle_alpha   90.00000000
_cell_angle_beta   90.00000000
_cell_angle_gamma   120.00000000
_symmetry_Int_Tables_number   1
_chemical_formula_structural   FePO4
_chemical_formula_sum   'Fe18 P18 O72'
_cell_volume   1322.44167820
_cell_formula_units_Z   18
loop_
 _symmetry_equiv_pos_site_id
 _symmetry_equiv_pos_as_xyz
  1  'x, y, z'
loop_
 _atom_site_type_symbol
 _atom_site_label
 _atom_site_symmetry_multiplicity
 _atom_site_fract_x
 _atom_site_fract_y
 _atom_site_fract_z
 _atom_site_occupancy
  Fe  Fe0  1  0.00000000  0.00000000  0.00000000  1
  Fe  Fe1  1  0.33333333  0.66666667  0.02026267  1
  Fe  Fe2  1  0.33333333  0.66666667  0.52026267  1
  Fe  Fe3  1  0.33333333  0.66666667  0.16666667  1
  Fe  Fe4  1  0.33333333  0.66666667  0.81307067  1
  Fe  Fe5  1  0.33333333  0.66666667  0.31307067  1
  Fe  Fe6  1  0.66666667  0.33333333  0.33333333  1
  Fe  Fe7  1  0.00000000  0.00000000  0.35359600  1
  Fe  Fe8  1  0.00000000  0.00000000  0.85359600  1
  Fe  Fe9  1  0.00000000  0.00000000  0.50000000  1
  Fe  Fe10  1  1.00000000  0.00000000  0.14640400  1
  Fe  Fe11  1  0.00000000  0.00000000  0.64640400  1
  Fe  Fe12  1  0.33333333  0.66666667  0.66666667  1
  Fe  Fe13  1  0.66666667  0.33333333  0.68692933  1
  Fe  Fe14  1  0.66666667  0.33333333  0.18692933  1
  Fe  Fe15  1  0.66666667  0.33333333  0.83333333  1
  Fe  Fe16  1  0.66666667  0.33333333  0.47973733  1
  Fe  Fe17  1  0.66666667  0.33333333  0.97973733  1
  P  P18  1  0.66666667  0.63146733  0.08333333  1
  P  P19  1  0.96480067  0.33333333  0.08333333  1
  P  P20  1  0.36853267  0.03519933  0.08333333  1
  P  P21  1  0.29813400  0.29813400  0.25000000  1
  P  P22  1  0.70186600  0.00000000  0.25000000  1
  P  P23  1  0.00000000  0.70186600  0.25000000  1
  P  P24  1  0.33333333  0.96480067  0.41666667  1
  P  P25  1  0.63146733  0.66666667  0.41666667  1
  P  P26  1  0.03519933  0.36853267  0.41666667  1
  P  P27  1  0.96480067  0.63146733  0.58333333  1
  P  P28  1  0.36853267  0.33333333  0.58333333  1
  P  P29  1  0.66666667  0.03519933  0.58333333  1
  P  P30  1  0.00000000  0.29813400  0.75000000  1
  P  P31  1  0.29813400  0.00000000  0.75000000  1
  P  P32  1  0.70186600  0.70186600  0.75000000  1
  P  P33  1  0.63146733  0.96480067  0.91666667  1
  P  P34  1  0.03519933  0.66666667  0.91666667  1
  P  P35  1  0.33333333  0.36853267  0.91666667  1
  O  O36  1  0.53800933  0.67832667  0.35489867  1
  O  O37  1  0.14031733  0.46199067  0.35489867  1
  O  O38  1  0.32167333  0.85968267  0.35489867  1
  O  O39  1  0.83269467  0.82247733  0.07195533  1
  O  O40  1  0.67832667  0.53800933  0.14510133  1
  O  O41  1  0.50063867  0.65644933  0.09471133  1
  O  O42  1  0.98978267  0.16730533  0.07195533  1
  O  O43  1  0.15581067  0.49936133  0.09471133  1
  O  O44  1  0.20467600  0.19301600  0.18823200  1
  O  O45  1  0.34355067  0.84418933  0.09471133  1
  O  O46  1  0.48914400  0.32311600  0.26137800  1
  O  O47  1  0.80698400  0.01166000  0.18823200  1
  O  O48  1  0.85968267  0.32167333  0.14510133  1
  O  O49  1  0.17752267  0.01021733  0.07195533  1
  O  O50  1  0.32311600  0.48914400  0.23862200  1
  O  O51  1  0.46199067  0.14031733  0.14510133  1
  O  O52  1  0.51085600  0.83397200  0.23862200  1
  O  O53  1  0.67688400  0.16602800  0.26137800  1
  O  O54  1  0.16602800  0.67688400  0.23862200  1
  O  O55  1  0.98834000  0.79532400  0.18823200  1
  O  O56  1  0.83397200  0.51085600  0.26137800  1
  O  O57  1  0.34499333  0.47365067  0.97843467  1
  O  O58  1  0.52634933  0.87134267  0.97843467  1
  O  O59  1  0.12865733  0.65500667  0.97843467  1
  O  O60  1  0.20467600  0.01166000  0.68823200  1
  O  O61  1  0.80698400  0.79532400  0.68823200  1
  O  O62  1  0.98834000  0.19301600  0.68823200  1
  O  O63  1  0.49936133  0.15581067  0.40528867  1
  O  O64  1  0.34499333  0.87134267  0.47843467  1
  O  O65  1  0.16730533  0.98978267  0.42804467  1
  O  O66  1  0.65644933  0.50063867  0.40528867  1
  O  O67  1  0.82247733  0.83269467  0.42804467  1
  O  O68  1  0.87134267  0.52634933  0.52156533  1
  O  O69  1  0.01021733  0.17752267  0.42804467  1
  O  O70  1  0.15581067  0.65644933  0.59471133  1
  O  O71  1  0.47365067  0.34499333  0.52156533  1
  O  O72  1  0.52634933  0.65500667  0.47843467  1
  O  O73  1  0.84418933  0.34355067  0.40528867  1
  O  O74  1  0.98978267  0.82247733  0.57195533  1
  O  O75  1  0.12865733  0.47365067  0.47843467  1
  O  O76  1  0.17752267  0.16730533  0.57195533  1
  O  O77  1  0.34355067  0.49936133  0.59471133  1
  O  O78  1  0.83269467  0.01021733  0.57195533  1
  O  O79  1  0.65500667  0.12865733  0.52156533  1
  O  O80  1  0.50063867  0.84418933  0.59471133  1
  O  O81  1  0.01166000  0.80698400  0.31176800  1
  O  O82  1  0.19301600  0.20467600  0.31176800  1
  O  O83  1  0.79532400  0.98834000  0.31176800  1
  O  O84  1  0.87134267  0.34499333  0.02156533  1
  O  O85  1  0.47365067  0.12865733  0.02156533  1
  O  O86  1  0.65500667  0.52634933  0.02156533  1
  O  O87  1  0.16602800  0.48914400  0.73862200  1
  O  O88  1  0.01166000  0.20467600  0.81176800  1
  O  O89  1  0.83397200  0.32311600  0.76137800  1
  O  O90  1  0.32311600  0.83397200  0.73862200  1
  O  O91  1  0.48914400  0.16602800  0.76137800  1
  O  O92  1  0.53800933  0.85968267  0.85489867  1
  O  O93  1  0.67688400  0.51085600  0.76137800  1
  O  O94  1  0.82247733  0.98978267  0.92804467  1
  O  O95  1  0.14031733  0.67832667  0.85489867  1
  O  O96  1  0.19301600  0.98834000  0.81176800  1
  O  O97  1  0.51085600  0.67688400  0.73862200  1
  O  O98  1  0.65644933  0.15581067  0.90528867  1
  O  O99  1  0.79532400  0.80698400  0.81176800  1
  O  O100  1  0.84418933  0.50063867  0.90528867  1
  O  O101  1  0.01021733  0.83269467  0.92804467  1
  O  O102  1  0.49936133  0.34355067  0.90528867  1
  O  O103  1  0.32167333  0.46199067  0.85489867  1
  O  O104  1  0.16730533  0.17752267  0.92804467  1
  O  O105  1  0.67832667  0.14031733  0.64510133  1
  O  O106  1  0.85968267  0.53800933  0.64510133  1
  O  O107  1  0.46199067  0.32167333  0.64510133  1
