# generated using pymatgen
data_LiCr2O4
_symmetry_space_group_name_H-M   'P 1'
_cell_length_a   9.99204400
_cell_length_b   5.87278200
_cell_length_c   5.08743600
_cell_angle_alpha   90.00000000
_cell_angle_beta   90.34458070
_cell_angle_gamma   90.00000000
_symmetry_Int_Tables_number   1
_chemical_formula_structural   LiCr2O4
_chemical_formula_sum   'Li4 Cr8 O16'
_cell_volume   298.53092239
_cell_formula_units_Z   4
loop_
 _symmetry_equiv_pos_site_id
 _symmetry_equiv_pos_as_xyz
  1  'x, y, z'
loop_
 _atom_site_type_symbol
 _atom_site_label
 _atom_site_symmetry_multiplicity
 _atom_site_fract_x
 _atom_site_fract_y
 _atom_site_fract_z
 _atom_site_occupancy
  Li  Li0  1  0.50000000  0.64051900  0.25000000  1
  Li  Li1  1  0.50000000  0.35948100  0.75000000  1
  Li  Li2  1  0.00000000  0.14051900  0.25000000  1
  Li  Li3  1  0.00000000  0.85948100  0.75000000  1
  Cr  Cr4  1  0.73443850  0.87562350  0.75081300  1
  Cr  Cr5  1  0.26556150  0.12437650  0.24918700  1
  Cr  Cr6  1  0.26556150  0.87562350  0.74918700  1
  Cr  Cr7  1  0.73443850  0.12437650  0.25081300  1
  Cr  Cr8  1  0.23443850  0.37562350  0.75081300  1
  Cr  Cr9  1  0.76556150  0.62437650  0.24918700  1
  Cr  Cr10  1  0.76556150  0.37562350  0.74918700  1
  Cr  Cr11  1  0.23443850  0.62437650  0.25081300  1
  O  O12  1  0.15107750  0.11359850  0.57095900  1
  O  O13  1  0.35503800  0.13591100  0.90750300  1
  O  O14  1  0.84892250  0.88640150  0.42904100  1
  O  O15  1  0.35503800  0.86408900  0.40750300  1
  O  O16  1  0.15107750  0.88640150  0.07095900  1
  O  O17  1  0.64496200  0.86408900  0.09249700  1
  O  O18  1  0.64496200  0.13591100  0.59249700  1
  O  O19  1  0.84892250  0.11359850  0.92904100  1
  O  O20  1  0.65107750  0.61359850  0.57095900  1
  O  O21  1  0.85503800  0.63591100  0.90750300  1
  O  O22  1  0.34892250  0.38640150  0.42904100  1
  O  O23  1  0.85503800  0.36408900  0.40750300  1
  O  O24  1  0.65107750  0.38640150  0.07095900  1
  O  O25  1  0.14496200  0.36408900  0.09249700  1
  O  O26  1  0.14496200  0.63591100  0.59249700  1
  O  O27  1  0.34892250  0.61359850  0.92904100  1
