# generated using pymatgen
data_LiMnO2
_symmetry_space_group_name_H-M   'P 1'
_cell_length_a   3.13200081
_cell_length_b   4.97416576
_cell_length_c   10.14702402
_cell_angle_alpha   90.00000000
_cell_angle_beta   98.28593391
_cell_angle_gamma   90.00000000
_symmetry_Int_Tables_number   1
_chemical_formula_structural   LiMnO2
_chemical_formula_sum   'Li4 Mn4 O8'
_cell_volume   156.43123193
_cell_formula_units_Z   4
loop_
 _symmetry_equiv_pos_site_id
 _symmetry_equiv_pos_as_xyz
  1  'x, y, z'
loop_
 _atom_site_type_symbol
 _atom_site_label
 _atom_site_symmetry_multiplicity
 _atom_site_fract_x
 _atom_site_fract_y
 _atom_site_fract_z
 _atom_site_occupancy
  Li  Li0  1  0.37546475  0.09699575  0.24216650  1
  Li  Li1  1  0.37546475  0.90300425  0.74216650  1
  Li  Li2  1  0.87546475  0.59699575  0.24216650  1
  Li  Li3  1  0.87546475  0.40300425  0.74216650  1
  Mn  Mn4  1  0.28988725  0.54480625  0.49905800  1
  Mn  Mn5  1  0.28988725  0.45519375  0.99905800  1
  Mn  Mn6  1  0.78988725  0.04480625  0.49905800  1
  Mn  Mn7  1  0.78988725  0.95519375  0.99905800  1
  O  O8  1  0.16928475  0.13699225  0.88669400  1
  O  O9  1  0.16928475  0.86300775  0.38669400  1
  O  O10  1  0.90632575  0.27274375  0.11307600  1
  O  O11  1  0.40632575  0.22725625  0.61307600  1
  O  O12  1  0.66928475  0.63699225  0.88669400  1
  O  O13  1  0.66928475  0.36300775  0.38669400  1
  O  O14  1  0.40632575  0.77274375  0.11307600  1
  O  O15  1  0.90632575  0.72725625  0.61307600  1
