# generated using pymatgen
data_Na3Mn2P2(CO7)2
_symmetry_space_group_name_H-M   'P 1'
_cell_length_a   10.20965416
_cell_length_b   6.57297500
_cell_length_c   10.36602355
_cell_angle_alpha   90.00000000
_cell_angle_beta   119.06320953
_cell_angle_gamma   90.00000000
_symmetry_Int_Tables_number   1
_chemical_formula_structural   Na3Mn2P2(CO7)2
_chemical_formula_sum   'Na6 Mn4 P4 C4 O28'
_cell_volume   608.04893945
_cell_formula_units_Z   2
loop_
 _symmetry_equiv_pos_site_id
 _symmetry_equiv_pos_as_xyz
  1  'x, y, z'
loop_
 _atom_site_type_symbol
 _atom_site_label
 _atom_site_symmetry_multiplicity
 _atom_site_fract_x
 _atom_site_fract_y
 _atom_site_fract_z
 _atom_site_occupancy
  Na  Na0  1  0.75838500  0.52230800  0.75922500  1
  Na  Na1  1  0.75659300  0.99018900  0.25304500  1
  Na  Na2  1  0.75797000  0.50713400  0.25545600  1
  Na  Na3  1  0.24340700  0.49018900  0.74695500  1
  Na  Na4  1  0.24203000  0.00713400  0.74454400  1
  Na  Na5  1  0.24161500  0.02230800  0.24077500  1
  Mn  Mn6  1  0.65589200  0.24189500  0.93111900  1
  Mn  Mn7  1  0.65135800  0.24553200  0.43798300  1
  Mn  Mn8  1  0.34864200  0.74553200  0.56201700  1
  Mn  Mn9  1  0.34410800  0.74189500  0.06888100  1
  P  P10  1  0.57582500  0.74747600  0.93443200  1
  P  P11  1  0.57426800  0.74881400  0.42906900  1
  P  P12  1  0.42573200  0.24881400  0.57093100  1
  P  P13  1  0.42417500  0.24747600  0.06556800  1
  C  C14  1  0.92744000  0.25410400  0.09759200  1
  C  C15  1  0.92506300  0.25105300  0.59707100  1
  C  C16  1  0.07493700  0.75105300  0.40292900  1
  C  C17  1  0.07256000  0.75410400  0.90240800  1
  O  O18  1  0.93593600  0.75014900  0.32635900  1
  O  O19  1  0.93645900  0.75430500  0.81886800  1
  O  O20  1  0.86068400  0.25648400  0.95231300  1
  O  O21  1  0.85426200  0.24574400  0.45060400  1
  O  O22  1  0.82531500  0.24947900  0.14334300  1
  O  O23  1  0.83078900  0.25707800  0.64850200  1
  O  O24  1  0.67383700  0.93511000  0.95518500  1
  O  O25  1  0.67146400  0.55936600  0.94569200  1
  O  O26  1  0.67180800  0.93501100  0.44039100  1
  O  O27  1  0.67004700  0.56045000  0.44015400  1
  O  O28  1  0.53722600  0.74301900  0.55856200  1
  O  O29  1  0.57650500  0.25507200  0.71663800  1
  O  O30  1  0.53882400  0.74204600  0.06565100  1
  O  O31  1  0.57444400  0.25028200  0.21304300  1
  O  O32  1  0.42555600  0.75028200  0.78695700  1
  O  O33  1  0.46117600  0.24204600  0.93434900  1
  O  O34  1  0.42349500  0.75507200  0.28336200  1
  O  O35  1  0.46277400  0.24301900  0.44143800  1
  O  O36  1  0.32819200  0.43501100  0.55960900  1
  O  O37  1  0.32995300  0.06045000  0.55984600  1
  O  O38  1  0.32616300  0.43511000  0.04481500  1
  O  O39  1  0.32853600  0.05936600  0.05430800  1
  O  O40  1  0.16921100  0.75707800  0.35149800  1
  O  O41  1  0.17468500  0.74947900  0.85665700  1
  O  O42  1  0.14573800  0.74574400  0.54939600  1
  O  O43  1  0.13931600  0.75648400  0.04768700  1
  O  O44  1  0.06354100  0.25430500  0.18113200  1
  O  O45  1  0.06406400  0.25014900  0.67364100  1
