# generated using pymatgen
data_Li2Mn(CO3)2
_symmetry_space_group_name_H-M   'P 1'
_cell_length_a   5.41301992
_cell_length_b   11.84382091
_cell_length_c   16.65312119
_cell_angle_alpha   90.00000000
_cell_angle_beta   90.00000000
_cell_angle_gamma   90.00000000
_symmetry_Int_Tables_number   1
_chemical_formula_structural   Li2Mn(CO3)2
_chemical_formula_sum   'Li16 Mn8 C16 O48'
_cell_volume   1067.64556358
_cell_formula_units_Z   8
loop_
 _symmetry_equiv_pos_site_id
 _symmetry_equiv_pos_as_xyz
  1  'x, y, z'
loop_
 _atom_site_type_symbol
 _atom_site_label
 _atom_site_symmetry_multiplicity
 _atom_site_fract_x
 _atom_site_fract_y
 _atom_site_fract_z
 _atom_site_occupancy
  Li  Li0  1  0.91478575  0.77676125  0.91340850  1
  Li  Li1  1  0.16478575  0.52676125  0.83659150  1
  Li  Li2  1  0.16478575  0.97323875  0.66340850  1
  Li  Li3  1  0.91478575  0.72323875  0.58659150  1
  Li  Li4  1  0.41478575  0.77676125  0.41340850  1
  Li  Li5  1  0.66478575  0.52676125  0.33659150  1
  Li  Li6  1  0.66478575  0.97323875  0.16340850  1
  Li  Li7  1  0.41478575  0.72323875  0.08659150  1
  Li  Li8  1  0.41478575  0.27676125  0.91340850  1
  Li  Li9  1  0.66478575  0.02676125  0.83659150  1
  Li  Li10  1  0.66478575  0.47323875  0.66340850  1
  Li  Li11  1  0.41478575  0.22323875  0.58659150  1
  Li  Li12  1  0.91478575  0.27676125  0.41340850  1
  Li  Li13  1  0.16478575  0.02676125  0.33659150  1
  Li  Li14  1  0.16478575  0.47323875  0.16340850  1
  Li  Li15  1  0.91478575  0.22323875  0.08659150  1
  Mn  Mn16  1  0.61881550  0.50000000  0.00000000  1
  Mn  Mn17  1  0.36881550  0.75000000  0.75000000  1
  Mn  Mn18  1  0.11881550  0.50000000  0.50000000  1
  Mn  Mn19  1  0.86881550  0.75000000  0.25000000  1
  Mn  Mn20  1  0.11881550  0.00000000  0.00000000  1
  Mn  Mn21  1  0.86881550  0.25000000  0.75000000  1
  Mn  Mn22  1  0.61881550  0.00000000  0.50000000  1
  Mn  Mn23  1  0.36881550  0.25000000  0.25000000  1
  C  C24  1  0.44309600  0.69984675  0.90275925  1
  C  C25  1  0.19309600  0.94984675  0.84724075  1
  C  C26  1  0.19309600  0.55015325  0.65275925  1
  C  C27  1  0.44309600  0.80015325  0.59724075  1
  C  C28  1  0.94309600  0.69984675  0.40275925  1
  C  C29  1  0.69309600  0.94984675  0.34724075  1
  C  C30  1  0.69309600  0.55015325  0.15275925  1
  C  C31  1  0.94309600  0.80015325  0.09724075  1
  C  C32  1  0.94309600  0.19984675  0.90275925  1
  C  C33  1  0.69309600  0.44984675  0.84724075  1
  C  C34  1  0.69309600  0.05015325  0.65275925  1
  C  C35  1  0.94309600  0.30015325  0.59724075  1
  C  C36  1  0.44309600  0.19984675  0.40275925  1
  C  C37  1  0.19309600  0.44984675  0.34724075  1
  C  C38  1  0.19309600  0.05015325  0.15275925  1
  C  C39  1  0.44309600  0.30015325  0.09724075  1
  O  O40  1  0.49374750  0.67059275  0.97575525  1
  O  O41  1  0.24374750  0.92059275  0.77424475  1
  O  O42  1  0.24374750  0.57940725  0.72575525  1
  O  O43  1  0.49374750  0.82940725  0.52424475  1
  O  O44  1  0.96755900  0.94630125  0.87531675  1
  O  O45  1  0.21755900  0.69630125  0.87468325  1
  O  O46  1  0.21755900  0.80369875  0.62531675  1
  O  O47  1  0.96755900  0.55369875  0.62468325  1
  O  O48  1  0.36672550  0.98138775  0.89600725  1
  O  O49  1  0.61672550  0.73138775  0.85399275  1
  O  O50  1  0.61672550  0.76861225  0.64600725  1
  O  O51  1  0.36672550  0.51861225  0.60399275  1
  O  O52  1  0.99374750  0.67059275  0.47575525  1
  O  O53  1  0.74374750  0.92059275  0.27424475  1
  O  O54  1  0.74374750  0.57940725  0.22575525  1
  O  O55  1  0.99374750  0.82940725  0.02424475  1
  O  O56  1  0.46755900  0.94630125  0.37531675  1
  O  O57  1  0.71755900  0.69630125  0.37468325  1
  O  O58  1  0.71755900  0.80369875  0.12531675  1
  O  O59  1  0.46755900  0.55369875  0.12468325  1
  O  O60  1  0.86672550  0.98138775  0.39600725  1
  O  O61  1  0.11672550  0.73138775  0.35399275  1
  O  O62  1  0.11672550  0.76861225  0.14600725  1
  O  O63  1  0.86672550  0.51861225  0.10399275  1
  O  O64  1  0.99374750  0.17059275  0.97575525  1
  O  O65  1  0.74374750  0.42059275  0.77424475  1
  O  O66  1  0.74374750  0.07940725  0.72575525  1
  O  O67  1  0.99374750  0.32940725  0.52424475  1
  O  O68  1  0.46755900  0.44630125  0.87531675  1
  O  O69  1  0.71755900  0.19630125  0.87468325  1
  O  O70  1  0.71755900  0.30369875  0.62531675  1
  O  O71  1  0.46755900  0.05369875  0.62468325  1
  O  O72  1  0.86672550  0.48138775  0.89600725  1
  O  O73  1  0.11672550  0.23138775  0.85399275  1
  O  O74  1  0.11672550  0.26861225  0.64600725  1
  O  O75  1  0.86672550  0.01861225  0.60399275  1
  O  O76  1  0.49374750  0.17059275  0.47575525  1
  O  O77  1  0.24374750  0.42059275  0.27424475  1
  O  O78  1  0.24374750  0.07940725  0.22575525  1
  O  O79  1  0.49374750  0.32940725  0.02424475  1
  O  O80  1  0.96755900  0.44630125  0.37531675  1
  O  O81  1  0.21755900  0.19630125  0.37468325  1
  O  O82  1  0.21755900  0.30369875  0.12531675  1
  O  O83  1  0.96755900  0.05369875  0.12468325  1
  O  O84  1  0.36672550  0.48138775  0.39600725  1
  O  O85  1  0.61672550  0.23138775  0.35399275  1
  O  O86  1  0.61672550  0.26861225  0.14600725  1
  O  O87  1  0.36672550  0.01861225  0.10399275  1
