# generated using pymatgen
data_Li3MnV(PO4)3
_symmetry_space_group_name_H-M   'P 1'
_cell_length_a   11.89359400
_cell_length_b   16.86440200
_cell_length_c   17.17951200
_cell_angle_alpha   90.00000000
_cell_angle_beta   90.00000000
_cell_angle_gamma   90.00000000
_symmetry_Int_Tables_number   1
_chemical_formula_structural   Li3MnV(PO4)3
_chemical_formula_sum   'Li48 Mn16 V16 P48 O192'
_cell_volume   3445.83817834
_cell_formula_units_Z   16
loop_
 _symmetry_equiv_pos_site_id
 _symmetry_equiv_pos_as_xyz
  1  'x, y, z'
loop_
 _atom_site_type_symbol
 _atom_site_label
 _atom_site_symmetry_multiplicity
 _atom_site_fract_x
 _atom_site_fract_y
 _atom_site_fract_z
 _atom_site_occupancy
  Li  Li0  1  0.12070100  0.93885550  0.18663650  1
  Li  Li1  1  0.87070100  0.81114450  0.43663650  1
  Li  Li2  1  0.50000000  0.00000000  0.00000000  1
  Li  Li3  1  0.87929900  0.06114450  0.18663650  1
  Li  Li4  1  0.75000000  0.75000000  0.25000000  1
  Li  Li5  1  0.12929900  0.18885550  0.43663650  1
  Li  Li6  1  0.62070100  0.06114450  0.31336350  1
  Li  Li7  1  0.00000000  0.00000000  0.00000000  1
  Li  Li8  1  0.37070100  0.18885550  0.06336350  1
  Li  Li9  1  0.75000000  0.25000000  0.25000000  1
  Li  Li10  1  0.37929900  0.93885550  0.31336350  1
  Li  Li11  1  0.62929900  0.81114450  0.06336350  1
  Li  Li12  1  0.12070100  0.43885550  0.68663650  1
  Li  Li13  1  0.87070100  0.31114450  0.93663650  1
  Li  Li14  1  0.50000000  0.50000000  0.50000000  1
  Li  Li15  1  0.87929900  0.56114450  0.68663650  1
  Li  Li16  1  0.75000000  0.25000000  0.75000000  1
  Li  Li17  1  0.12929900  0.68885550  0.93663650  1
  Li  Li18  1  0.62070100  0.56114450  0.81336350  1
  Li  Li19  1  0.00000000  0.50000000  0.50000000  1
  Li  Li20  1  0.37070100  0.68885550  0.56336350  1
  Li  Li21  1  0.75000000  0.75000000  0.75000000  1
  Li  Li22  1  0.37929900  0.43885550  0.81336350  1
  Li  Li23  1  0.62929900  0.31114450  0.56336350  1
  Li  Li24  1  0.62070100  0.93885550  0.68663650  1
  Li  Li25  1  0.37070100  0.81114450  0.93663650  1
  Li  Li26  1  0.00000000  0.00000000  0.50000000  1
  Li  Li27  1  0.37929900  0.06114450  0.68663650  1
  Li  Li28  1  0.25000000  0.75000000  0.75000000  1
  Li  Li29  1  0.62929900  0.18885550  0.93663650  1
  Li  Li30  1  0.12070100  0.06114450  0.81336350  1
  Li  Li31  1  0.50000000  0.00000000  0.50000000  1
  Li  Li32  1  0.87070100  0.18885550  0.56336350  1
  Li  Li33  1  0.25000000  0.25000000  0.75000000  1
  Li  Li34  1  0.87929900  0.93885550  0.81336350  1
  Li  Li35  1  0.12929900  0.81114450  0.56336350  1
  Li  Li36  1  0.62070100  0.43885550  0.18663650  1
  Li  Li37  1  0.37070100  0.31114450  0.43663650  1
  Li  Li38  1  0.00000000  0.50000000  0.00000000  1
  Li  Li39  1  0.37929900  0.56114450  0.18663650  1
  Li  Li40  1  0.25000000  0.25000000  0.25000000  1
  Li  Li41  1  0.62929900  0.68885550  0.43663650  1
  Li  Li42  1  0.12070100  0.56114450  0.31336350  1
  Li  Li43  1  0.50000000  0.50000000  0.00000000  1
  Li  Li44  1  0.87070100  0.68885550  0.06336350  1
  Li  Li45  1  0.25000000  0.75000000  0.25000000  1
  Li  Li46  1  0.87929900  0.43885550  0.31336350  1
  Li  Li47  1  0.12929900  0.31114450  0.06336350  1
  Mn  Mn48  1  0.87500000  0.62500000  0.37500000  1
  Mn  Mn49  1  0.62500000  0.62500000  0.12500000  1
  Mn  Mn50  1  0.62500000  0.87500000  0.37500000  1
  Mn  Mn51  1  0.87500000  0.87500000  0.12500000  1
  Mn  Mn52  1  0.87500000  0.12500000  0.87500000  1
  Mn  Mn53  1  0.62500000  0.12500000  0.62500000  1
  Mn  Mn54  1  0.62500000  0.37500000  0.87500000  1
  Mn  Mn55  1  0.87500000  0.37500000  0.62500000  1
  Mn  Mn56  1  0.37500000  0.62500000  0.87500000  1
  Mn  Mn57  1  0.12500000  0.62500000  0.62500000  1
  Mn  Mn58  1  0.12500000  0.87500000  0.87500000  1
  Mn  Mn59  1  0.37500000  0.87500000  0.62500000  1
  Mn  Mn60  1  0.37500000  0.12500000  0.37500000  1
  Mn  Mn61  1  0.12500000  0.12500000  0.12500000  1
  Mn  Mn62  1  0.12500000  0.37500000  0.37500000  1
  Mn  Mn63  1  0.37500000  0.37500000  0.12500000  1
  V  V64  1  0.12500000  0.87500000  0.37500000  1
  V  V65  1  0.37500000  0.87500000  0.12500000  1
  V  V66  1  0.62500000  0.12500000  0.12500000  1
  V  V67  1  0.87500000  0.12500000  0.37500000  1
  V  V68  1  0.12500000  0.37500000  0.87500000  1
  V  V69  1  0.37500000  0.37500000  0.62500000  1
  V  V70  1  0.62500000  0.62500000  0.62500000  1
  V  V71  1  0.87500000  0.62500000  0.87500000  1
  V  V72  1  0.62500000  0.87500000  0.87500000  1
  V  V73  1  0.87500000  0.87500000  0.62500000  1
  V  V74  1  0.12500000  0.12500000  0.62500000  1
  V  V75  1  0.37500000  0.12500000  0.87500000  1
  V  V76  1  0.62500000  0.37500000  0.37500000  1
  V  V77  1  0.87500000  0.37500000  0.12500000  1
  V  V78  1  0.12500000  0.62500000  0.12500000  1
  V  V79  1  0.37500000  0.62500000  0.37500000  1
  P  P80  1  0.50086800  0.25000000  0.25000000  1
  P  P81  1  0.37696250  0.06225100  0.18721150  1
  P  P82  1  0.87696250  0.93774900  0.31278850  1
  P  P83  1  0.12303750  0.06225100  0.31278850  1
  P  P84  1  0.62696250  0.31225100  0.06278850  1
  P  P85  1  0.25086800  0.00000000  0.00000000  1
  P  P86  1  0.99913200  0.25000000  0.25000000  1
  P  P87  1  0.62696250  0.18774900  0.43721150  1
  P  P88  1  0.62303750  0.93774900  0.18721150  1
  P  P89  1  0.87303750  0.31225100  0.43721150  1
  P  P90  1  0.87303750  0.18774900  0.06278850  1
  P  P91  1  0.74913200  0.00000000  0.00000000  1
  P  P92  1  0.50086800  0.75000000  0.75000000  1
  P  P93  1  0.37696250  0.56225100  0.68721150  1
  P  P94  1  0.87696250  0.43774900  0.81278850  1
  P  P95  1  0.12303750  0.56225100  0.81278850  1
  P  P96  1  0.62696250  0.81225100  0.56278850  1
  P  P97  1  0.25086800  0.50000000  0.50000000  1
  P  P98  1  0.99913200  0.75000000  0.75000000  1
  P  P99  1  0.62696250  0.68774900  0.93721150  1
  P  P100  1  0.62303750  0.43774900  0.68721150  1
  P  P101  1  0.87303750  0.81225100  0.93721150  1
  P  P102  1  0.87303750  0.68774900  0.56278850  1
  P  P103  1  0.74913200  0.50000000  0.50000000  1
  P  P104  1  0.00086800  0.25000000  0.75000000  1
  P  P105  1  0.87696250  0.06225100  0.68721150  1
  P  P106  1  0.37696250  0.93774900  0.81278850  1
  P  P107  1  0.62303750  0.06225100  0.81278850  1
  P  P108  1  0.12696250  0.31225100  0.56278850  1
  P  P109  1  0.75086800  0.00000000  0.50000000  1
  P  P110  1  0.49913200  0.25000000  0.75000000  1
  P  P111  1  0.12696250  0.18774900  0.93721150  1
  P  P112  1  0.12303750  0.93774900  0.68721150  1
  P  P113  1  0.37303750  0.31225100  0.93721150  1
  P  P114  1  0.37303750  0.18774900  0.56278850  1
  P  P115  1  0.24913200  0.00000000  0.50000000  1
  P  P116  1  0.00086800  0.75000000  0.25000000  1
  P  P117  1  0.87696250  0.56225100  0.18721150  1
  P  P118  1  0.37696250  0.43774900  0.31278850  1
  P  P119  1  0.62303750  0.56225100  0.31278850  1
  P  P120  1  0.12696250  0.81225100  0.06278850  1
  P  P121  1  0.75086800  0.50000000  0.00000000  1
  P  P122  1  0.49913200  0.75000000  0.25000000  1
  P  P123  1  0.12696250  0.68774900  0.43721150  1
  P  P124  1  0.12303750  0.43774900  0.18721150  1
  P  P125  1  0.37303750  0.81225100  0.43721150  1
  P  P126  1  0.37303750  0.68774900  0.06278850  1
  P  P127  1  0.24913200  0.50000000  0.00000000  1
  O  O128  1  0.71826150  0.32989250  0.12801100  1
  O  O129  1  0.92114500  0.72964950  0.31800450  1
  O  O130  1  0.82502350  0.68605400  0.47960050  1
  O  O131  1  0.08518000  0.81911500  0.27270500  1
  O  O132  1  0.32794400  0.97490450  0.18031950  1
  O  O133  1  0.17205600  0.97490450  0.31968050  1
  O  O134  1  0.96826150  0.92010750  0.37801100  1
  O  O135  1  0.92497650  0.93605400  0.22960050  1
  O  O136  1  0.78822600  0.87304250  0.32954350  1
  O  O137  1  0.67497650  0.81394600  0.47960050  1
  O  O138  1  0.78822600  0.62695750  0.17045650  1
  O  O139  1  0.66482000  0.06911500  0.02270500  1
  O  O140  1  0.33518000  0.93088500  0.02270500  1
  O  O141  1  0.71177400  0.62695750  0.32954350  1
  O  O142  1  0.07502350  0.06394600  0.22960050  1
  O  O143  1  0.03173850  0.07989250  0.37801100  1
  O  O144  1  0.92114500  0.77035050  0.18199550  1
  O  O145  1  0.46826150  0.07989250  0.12198900  1
  O  O146  1  0.82794400  0.02509550  0.31968050  1
  O  O147  1  0.53822600  0.37695750  0.07954350  1
  O  O148  1  0.67114500  0.97964950  0.43199550  1
  O  O149  1  0.83518000  0.06911500  0.47729500  1
  O  O150  1  0.57885500  0.72964950  0.18199550  1
  O  O151  1  0.57794400  0.22490450  0.06968050  1
  O  O152  1  0.67205600  0.02509550  0.18031950  1
  O  O153  1  0.17114500  0.02035050  0.06800450  1
  O  O154  1  0.91482000  0.18088500  0.27270500  1
  O  O155  1  0.57885500  0.77035050  0.31800450  1
  O  O156  1  0.71177400  0.87304250  0.17045650  1
  O  O157  1  0.92205600  0.22490450  0.43031950  1
  O  O158  1  0.78173850  0.17010750  0.12801100  1
  O  O159  1  0.82885500  0.97964950  0.06800450  1
  O  O160  1  0.71826150  0.17010750  0.37198900  1
  O  O161  1  0.67497650  0.68605400  0.02039950  1
  O  O162  1  0.03822600  0.62304250  0.42045650  1
  O  O163  1  0.41482000  0.81911500  0.22729500  1
  O  O164  1  0.58518000  0.18088500  0.22729500  1
  O  O165  1  0.46177400  0.62304250  0.07954350  1
  O  O166  1  0.57502350  0.93605400  0.27039950  1
  O  O167  1  0.96177400  0.37695750  0.42045650  1
  O  O168  1  0.82502350  0.81394600  0.02039950  1
  O  O169  1  0.78173850  0.32989250  0.37198900  1
  O  O170  1  0.07794400  0.77509550  0.43031950  1
  O  O171  1  0.42205600  0.77509550  0.06968050  1
  O  O172  1  0.16482000  0.93088500  0.47729500  1
  O  O173  1  0.42497650  0.06394600  0.27039950  1
  O  O174  1  0.32885500  0.02035050  0.43199550  1
  O  O175  1  0.53173850  0.92010750  0.12198900  1
  O  O176  1  0.71826150  0.82989250  0.62801100  1
  O  O177  1  0.92114500  0.22964950  0.81800450  1
  O  O178  1  0.82502350  0.18605400  0.97960050  1
  O  O179  1  0.08518000  0.31911500  0.77270500  1
  O  O180  1  0.32794400  0.47490450  0.68031950  1
  O  O181  1  0.17205600  0.47490450  0.81968050  1
  O  O182  1  0.96826150  0.42010750  0.87801100  1
  O  O183  1  0.92497650  0.43605400  0.72960050  1
  O  O184  1  0.78822600  0.37304250  0.82954350  1
  O  O185  1  0.67497650  0.31394600  0.97960050  1
  O  O186  1  0.78822600  0.12695750  0.67045650  1
  O  O187  1  0.66482000  0.56911500  0.52270500  1
  O  O188  1  0.33518000  0.43088500  0.52270500  1
  O  O189  1  0.71177400  0.12695750  0.82954350  1
  O  O190  1  0.07502350  0.56394600  0.72960050  1
  O  O191  1  0.03173850  0.57989250  0.87801100  1
  O  O192  1  0.92114500  0.27035050  0.68199550  1
  O  O193  1  0.46826150  0.57989250  0.62198900  1
  O  O194  1  0.82794400  0.52509550  0.81968050  1
  O  O195  1  0.53822600  0.87695750  0.57954350  1
  O  O196  1  0.67114500  0.47964950  0.93199550  1
  O  O197  1  0.83518000  0.56911500  0.97729500  1
  O  O198  1  0.57885500  0.22964950  0.68199550  1
  O  O199  1  0.57794400  0.72490450  0.56968050  1
  O  O200  1  0.67205600  0.52509550  0.68031950  1
  O  O201  1  0.17114500  0.52035050  0.56800450  1
  O  O202  1  0.91482000  0.68088500  0.77270500  1
  O  O203  1  0.57885500  0.27035050  0.81800450  1
  O  O204  1  0.71177400  0.37304250  0.67045650  1
  O  O205  1  0.92205600  0.72490450  0.93031950  1
  O  O206  1  0.78173850  0.67010750  0.62801100  1
  O  O207  1  0.82885500  0.47964950  0.56800450  1
  O  O208  1  0.71826150  0.67010750  0.87198900  1
  O  O209  1  0.67497650  0.18605400  0.52039950  1
  O  O210  1  0.03822600  0.12304250  0.92045650  1
  O  O211  1  0.41482000  0.31911500  0.72729500  1
  O  O212  1  0.58518000  0.68088500  0.72729500  1
  O  O213  1  0.46177400  0.12304250  0.57954350  1
  O  O214  1  0.57502350  0.43605400  0.77039950  1
  O  O215  1  0.96177400  0.87695750  0.92045650  1
  O  O216  1  0.82502350  0.31394600  0.52039950  1
  O  O217  1  0.78173850  0.82989250  0.87198900  1
  O  O218  1  0.07794400  0.27509550  0.93031950  1
  O  O219  1  0.42205600  0.27509550  0.56968050  1
  O  O220  1  0.16482000  0.43088500  0.97729500  1
  O  O221  1  0.42497650  0.56394600  0.77039950  1
  O  O222  1  0.32885500  0.52035050  0.93199550  1
  O  O223  1  0.53173850  0.42010750  0.62198900  1
  O  O224  1  0.21826150  0.32989250  0.62801100  1
  O  O225  1  0.42114500  0.72964950  0.81800450  1
  O  O226  1  0.32502350  0.68605400  0.97960050  1
  O  O227  1  0.58518000  0.81911500  0.77270500  1
  O  O228  1  0.82794400  0.97490450  0.68031950  1
  O  O229  1  0.67205600  0.97490450  0.81968050  1
  O  O230  1  0.46826150  0.92010750  0.87801100  1
  O  O231  1  0.42497650  0.93605400  0.72960050  1
  O  O232  1  0.28822600  0.87304250  0.82954350  1
  O  O233  1  0.17497650  0.81394600  0.97960050  1
  O  O234  1  0.28822600  0.62695750  0.67045650  1
  O  O235  1  0.16482000  0.06911500  0.52270500  1
  O  O236  1  0.83518000  0.93088500  0.52270500  1
  O  O237  1  0.21177400  0.62695750  0.82954350  1
  O  O238  1  0.57502350  0.06394600  0.72960050  1
  O  O239  1  0.53173850  0.07989250  0.87801100  1
  O  O240  1  0.42114500  0.77035050  0.68199550  1
  O  O241  1  0.96826150  0.07989250  0.62198900  1
  O  O242  1  0.32794400  0.02509550  0.81968050  1
  O  O243  1  0.03822600  0.37695750  0.57954350  1
  O  O244  1  0.17114500  0.97964950  0.93199550  1
  O  O245  1  0.33518000  0.06911500  0.97729500  1
  O  O246  1  0.07885500  0.72964950  0.68199550  1
  O  O247  1  0.07794400  0.22490450  0.56968050  1
  O  O248  1  0.17205600  0.02509550  0.68031950  1
  O  O249  1  0.67114500  0.02035050  0.56800450  1
  O  O250  1  0.41482000  0.18088500  0.77270500  1
  O  O251  1  0.07885500  0.77035050  0.81800450  1
  O  O252  1  0.21177400  0.87304250  0.67045650  1
  O  O253  1  0.42205600  0.22490450  0.93031950  1
  O  O254  1  0.28173850  0.17010750  0.62801100  1
  O  O255  1  0.32885500  0.97964950  0.56800450  1
  O  O256  1  0.21826150  0.17010750  0.87198900  1
  O  O257  1  0.17497650  0.68605400  0.52039950  1
  O  O258  1  0.53822600  0.62304250  0.92045650  1
  O  O259  1  0.91482000  0.81911500  0.72729500  1
  O  O260  1  0.08518000  0.18088500  0.72729500  1
  O  O261  1  0.96177400  0.62304250  0.57954350  1
  O  O262  1  0.07502350  0.93605400  0.77039950  1
  O  O263  1  0.46177400  0.37695750  0.92045650  1
  O  O264  1  0.32502350  0.81394600  0.52039950  1
  O  O265  1  0.28173850  0.32989250  0.87198900  1
  O  O266  1  0.57794400  0.77509550  0.93031950  1
  O  O267  1  0.92205600  0.77509550  0.56968050  1
  O  O268  1  0.66482000  0.93088500  0.97729500  1
  O  O269  1  0.92497650  0.06394600  0.77039950  1
  O  O270  1  0.82885500  0.02035050  0.93199550  1
  O  O271  1  0.03173850  0.92010750  0.62198900  1
  O  O272  1  0.21826150  0.82989250  0.12801100  1
  O  O273  1  0.42114500  0.22964950  0.31800450  1
  O  O274  1  0.32502350  0.18605400  0.47960050  1
  O  O275  1  0.58518000  0.31911500  0.27270500  1
  O  O276  1  0.82794400  0.47490450  0.18031950  1
  O  O277  1  0.67205600  0.47490450  0.31968050  1
  O  O278  1  0.46826150  0.42010750  0.37801100  1
  O  O279  1  0.42497650  0.43605400  0.22960050  1
  O  O280  1  0.28822600  0.37304250  0.32954350  1
  O  O281  1  0.17497650  0.31394600  0.47960050  1
  O  O282  1  0.28822600  0.12695750  0.17045650  1
  O  O283  1  0.16482000  0.56911500  0.02270500  1
  O  O284  1  0.83518000  0.43088500  0.02270500  1
  O  O285  1  0.21177400  0.12695750  0.32954350  1
  O  O286  1  0.57502350  0.56394600  0.22960050  1
  O  O287  1  0.53173850  0.57989250  0.37801100  1
  O  O288  1  0.42114500  0.27035050  0.18199550  1
  O  O289  1  0.96826150  0.57989250  0.12198900  1
  O  O290  1  0.32794400  0.52509550  0.31968050  1
  O  O291  1  0.03822600  0.87695750  0.07954350  1
  O  O292  1  0.17114500  0.47964950  0.43199550  1
  O  O293  1  0.33518000  0.56911500  0.47729500  1
  O  O294  1  0.07885500  0.22964950  0.18199550  1
  O  O295  1  0.07794400  0.72490450  0.06968050  1
  O  O296  1  0.17205600  0.52509550  0.18031950  1
  O  O297  1  0.67114500  0.52035050  0.06800450  1
  O  O298  1  0.41482000  0.68088500  0.27270500  1
  O  O299  1  0.07885500  0.27035050  0.31800450  1
  O  O300  1  0.21177400  0.37304250  0.17045650  1
  O  O301  1  0.42205600  0.72490450  0.43031950  1
  O  O302  1  0.28173850  0.67010750  0.12801100  1
  O  O303  1  0.32885500  0.47964950  0.06800450  1
  O  O304  1  0.21826150  0.67010750  0.37198900  1
  O  O305  1  0.17497650  0.18605400  0.02039950  1
  O  O306  1  0.53822600  0.12304250  0.42045650  1
  O  O307  1  0.91482000  0.31911500  0.22729500  1
  O  O308  1  0.08518000  0.68088500  0.22729500  1
  O  O309  1  0.96177400  0.12304250  0.07954350  1
  O  O310  1  0.07502350  0.43605400  0.27039950  1
  O  O311  1  0.46177400  0.87695750  0.42045650  1
  O  O312  1  0.32502350  0.31394600  0.02039950  1
  O  O313  1  0.28173850  0.82989250  0.37198900  1
  O  O314  1  0.57794400  0.27509550  0.43031950  1
  O  O315  1  0.92205600  0.27509550  0.06968050  1
  O  O316  1  0.66482000  0.43088500  0.47729500  1
  O  O317  1  0.92497650  0.56394600  0.27039950  1
  O  O318  1  0.82885500  0.52035050  0.43199550  1
  O  O319  1  0.03173850  0.42010750  0.12198900  1
