# generated using pymatgen
data_Li2NiSn3(PO4)6
_symmetry_space_group_name_H-M   'P 1'
_cell_length_a   8.77749358
_cell_length_b   8.77749358
_cell_length_c   21.87753731
_cell_angle_alpha   90.00000000
_cell_angle_beta   90.00000000
_cell_angle_gamma   120.00000000
_symmetry_Int_Tables_number   1
_chemical_formula_structural   Li2NiSn3(PO4)6
_chemical_formula_sum   'Li6 Ni3 Sn9 P18 O72'
_cell_volume   1459.72183905
_cell_formula_units_Z   3
loop_
 _symmetry_equiv_pos_site_id
 _symmetry_equiv_pos_as_xyz
  1  'x, y, z'
loop_
 _atom_site_type_symbol
 _atom_site_label
 _atom_site_symmetry_multiplicity
 _atom_site_fract_x
 _atom_site_fract_y
 _atom_site_fract_z
 _atom_site_occupancy
  Li  Li0  1  0.00000000  0.00000000  0.01755900  1
  Li  Li1  1  0.33333333  0.66666667  0.16569667  1
  Li  Li2  1  0.66666667  0.33333333  0.35089233  1
  Li  Li3  1  0.00000000  0.00000000  0.49903000  1
  Li  Li4  1  0.33333333  0.66666667  0.68422567  1
  Li  Li5  1  0.66666667  0.33333333  0.83236333  1
  Ni  Ni6  1  0.00000000  0.00000000  0.14611600  1
  Ni  Ni7  1  0.66666667  0.33333333  0.47944933  1
  Ni  Ni8  1  0.33333333  0.66666667  0.81278267  1
  Sn  Sn9  1  0.66666667  0.33333333  0.18927433  1
  Sn  Sn10  1  0.33333333  0.66666667  0.31036267  1
  Sn  Sn11  1  0.33333333  0.66666667  0.02107267  1
  Sn  Sn12  1  0.33333333  0.66666667  0.52260767  1
  Sn  Sn13  1  0.00000000  0.00000000  0.64369600  1
  Sn  Sn14  1  0.00000000  0.00000000  0.35440600  1
  Sn  Sn15  1  0.00000000  0.00000000  0.85594100  1
  Sn  Sn16  1  0.66666667  0.33333333  0.97702933  1
  Sn  Sn17  1  0.66666667  0.33333333  0.68773933  1
  P  P18  1  0.29068767  0.99934233  0.24809333  1
  P  P19  1  0.00065767  0.29134533  0.24809333  1
  P  P20  1  0.70865467  0.70931233  0.24809333  1
  P  P21  1  0.96209067  0.63255533  0.08329733  1
  P  P22  1  0.67046467  0.03790933  0.08329733  1
  P  P23  1  0.36744467  0.32953533  0.08329733  1
  P  P24  1  0.95735433  0.33267567  0.58142667  1
  P  P25  1  0.66732433  0.62467867  0.58142667  1
  P  P26  1  0.37532133  0.04264567  0.58142667  1
  P  P27  1  0.62875733  0.96588867  0.41663067  1
  P  P28  1  0.33713133  0.37124267  0.41663067  1
  P  P29  1  0.03411133  0.66286867  0.41663067  1
  P  P30  1  0.62402100  0.66600900  0.91476000  1
  P  P31  1  0.33399100  0.95801200  0.91476000  1
  P  P32  1  0.04198800  0.37597900  0.91476000  1
  P  P33  1  0.29542400  0.29922200  0.74996400  1
  P  P34  1  0.00379800  0.70457600  0.74996400  1
  P  P35  1  0.70077800  0.99620200  0.74996400  1
  O  O36  1  0.46081600  0.32353100  0.02417600  1
  O  O37  1  0.86271500  0.53918400  0.02417600  1
  O  O38  1  0.47802900  0.16532700  0.25049300  1
  O  O39  1  0.67646900  0.13728500  0.02417600  1
  O  O40  1  0.31393800  0.83302400  0.24633300  1
  O  O41  1  0.18980433  0.98984867  0.19084367  1
  O  O42  1  0.83467300  0.31270200  0.25049300  1
  O  O43  1  0.16697600  0.48091400  0.24633300  1
  O  O44  1  0.51908600  0.68606200  0.24633300  1
  O  O45  1  0.87096067  0.52743333  0.14132033  1
  O  O46  1  0.98263833  0.81739267  0.08239367  1
  O  O47  1  0.65647267  0.12903933  0.14132033  1
  O  O48  1  0.01015133  0.19995567  0.19084367  1
  O  O49  1  0.68729800  0.52197100  0.25049300  1
  O  O50  1  0.80004433  0.81019567  0.19084367  1
  O  O51  1  0.14936633  0.65146667  0.08525567  1
  O  O52  1  0.50210033  0.85063367  0.08525567  1
  O  O53  1  0.83475433  0.01736167  0.08239367  1
  O  O54  1  0.47256667  0.34352733  0.14132033  1
  O  O55  1  0.34853333  0.49789967  0.08525567  1
  O  O56  1  0.99278933  0.19798567  0.30887667  1
  O  O57  1  0.18260733  0.16524567  0.08239367  1
  O  O58  1  0.80201433  0.79480367  0.30887667  1
  O  O59  1  0.20519633  0.00721067  0.30887667  1
  O  O60  1  0.12748267  0.65686433  0.35750933  1
  O  O61  1  0.52938167  0.87251733  0.35750933  1
  O  O62  1  0.14469567  0.49866033  0.58382633  1
  O  O63  1  0.34313567  0.47061833  0.35750933  1
  O  O64  1  0.98060467  0.16635733  0.57966633  1
  O  O65  1  0.85647100  0.32318200  0.52417700  1
  O  O66  1  0.50133967  0.64603533  0.58382633  1
  O  O67  1  0.83364267  0.81424733  0.57966633  1
  O  O68  1  0.18575267  0.01939533  0.57966633  1
  O  O69  1  0.53762733  0.86076667  0.47465367  1
  O  O70  1  0.64930500  0.15072600  0.41572700  1
  O  O71  1  0.32313933  0.46237267  0.47465367  1
  O  O72  1  0.67681800  0.53328900  0.52417700  1
  O  O73  1  0.35396467  0.85530433  0.58382633  1
  O  O74  1  0.46671100  0.14352900  0.52417700  1
  O  O75  1  0.81603300  0.98480000  0.41858900  1
  O  O76  1  0.16876700  0.18396700  0.41858900  1
  O  O77  1  0.50142100  0.35069500  0.41572700  1
  O  O78  1  0.13923333  0.67686067  0.47465367  1
  O  O79  1  0.01520000  0.83123300  0.41858900  1
  O  O80  1  0.65945600  0.53131900  0.64221000  1
  O  O81  1  0.84927400  0.49857900  0.41572700  1
  O  O82  1  0.46868100  0.12813700  0.64221000  1
  O  O83  1  0.87186300  0.34054400  0.64221000  1
  O  O84  1  0.79414933  0.99019767  0.69084267  1
  O  O85  1  0.19604833  0.20585067  0.69084267  1
  O  O86  1  0.81136233  0.83199367  0.91715967  1
  O  O87  1  0.00980233  0.80395167  0.69084267  1
  O  O88  1  0.64727133  0.49969067  0.91299967  1
  O  O89  1  0.52313767  0.65651533  0.85751033  1
  O  O90  1  0.16800633  0.97936867  0.91715967  1
  O  O91  1  0.50030933  0.14758067  0.91299967  1
  O  O92  1  0.85241933  0.35272867  0.91299967  1
  O  O93  1  0.20429400  0.19410000  0.80798700  1
  O  O94  1  0.31597167  0.48405933  0.74906033  1
  O  O95  1  0.98980600  0.79570600  0.80798700  1
  O  O96  1  0.34348467  0.86662233  0.85751033  1
  O  O97  1  0.02063133  0.18863767  0.91715967  1
  O  O98  1  0.13337767  0.47686233  0.85751033  1
  O  O99  1  0.48269967  0.31813333  0.75192233  1
  O  O100  1  0.83543367  0.51730033  0.75192233  1
  O  O101  1  0.16808767  0.68402833  0.74906033  1
  O  O102  1  0.80590000  0.01019400  0.80798700  1
  O  O103  1  0.68186667  0.16456633  0.75192233  1
  O  O104  1  0.32612267  0.86465233  0.97554333  1
  O  O105  1  0.51594067  0.83191233  0.74906033  1
  O  O106  1  0.13534767  0.46147033  0.97554333  1
  O  O107  1  0.53852967  0.67387733  0.97554333  1
