# generated using pymatgen
data_MnCu4H14(SO9)2
_symmetry_space_group_name_H-M   'P 1'
_cell_length_a   22.32687600
_cell_length_b   6.09073800
_cell_length_c   11.36423342
_cell_angle_alpha   90.00000000
_cell_angle_beta   100.13684651
_cell_angle_gamma   90.00000000
_symmetry_Int_Tables_number   1
_chemical_formula_structural   MnCu4H14(SO9)2
_chemical_formula_sum   'Mn4 Cu16 H56 S8 O72'
_cell_volume   1521.26651231
_cell_formula_units_Z   4
loop_
 _symmetry_equiv_pos_site_id
 _symmetry_equiv_pos_as_xyz
  1  'x, y, z'
loop_
 _atom_site_type_symbol
 _atom_site_label
 _atom_site_symmetry_multiplicity
 _atom_site_fract_x
 _atom_site_fract_y
 _atom_site_fract_z
 _atom_site_occupancy
  Mn  Mn0  1  0.53735650  0.38986350  0.26614700  1
  Mn  Mn1  1  0.96264350  0.88986350  0.73385300  1
  Mn  Mn2  1  0.03735650  0.88986350  0.26614700  1
  Mn  Mn3  1  0.46264350  0.38986350  0.73385300  1
  Cu  Cu4  1  0.75089350  0.00715850  0.00156500  1
  Cu  Cu5  1  0.73783650  0.26727750  0.74501900  1
  Cu  Cu6  1  0.73721450  0.76675450  0.74738700  1
  Cu  Cu7  1  0.74879150  0.02334750  0.49758300  1
  Cu  Cu8  1  0.75120850  0.52334750  0.50241700  1
  Cu  Cu9  1  0.76278550  0.26675450  0.25261300  1
  Cu  Cu10  1  0.76216350  0.76727750  0.25498100  1
  Cu  Cu11  1  0.74910650  0.50715850  0.99843500  1
  Cu  Cu12  1  0.25089350  0.50715850  0.00156500  1
  Cu  Cu13  1  0.23783650  0.76727750  0.74501900  1
  Cu  Cu14  1  0.23721450  0.26675450  0.74738700  1
  Cu  Cu15  1  0.24879150  0.52334750  0.49758300  1
  Cu  Cu16  1  0.25120850  0.02334750  0.50241700  1
  Cu  Cu17  1  0.26278550  0.76675450  0.25261300  1
  Cu  Cu18  1  0.26216350  0.26727750  0.25498100  1
  Cu  Cu19  1  0.24910650  0.00715850  0.99843500  1
  H  H20  1  0.53494400  0.70647800  0.83838600  1
  H  H21  1  0.55518950  0.36172150  0.92799600  1
  H  H22  1  0.53298150  0.11311250  0.93249200  1
  H  H23  1  0.53154700  0.72214600  0.70088400  1
  H  H24  1  0.56021900  0.34838100  0.62174000  1
  H  H25  1  0.53583600  0.10710900  0.58607800  1
  H  H26  1  0.58211700  0.00554000  0.35073600  1
  H  H27  1  0.58312500  0.00809900  0.20705600  1
  H  H28  1  0.65774650  0.02440450  0.82137600  1
  H  H29  1  0.65813650  0.51623250  0.82812700  1
  H  H30  1  0.66131150  0.29942850  0.48835500  1
  H  H31  1  0.67508100  0.04817700  0.30143000  1
  H  H32  1  0.66550250  0.24751150  0.03644000  1
  H  H33  1  0.67776500  0.51979500  0.29354900  1
  H  H34  1  0.82223500  0.01979500  0.70645100  1
  H  H35  1  0.83449750  0.74751150  0.96356000  1
  H  H36  1  0.82491900  0.54817700  0.69857000  1
  H  H37  1  0.83868850  0.79942850  0.51164500  1
  H  H38  1  0.84186350  0.01623250  0.17187300  1
  H  H39  1  0.84225350  0.52440450  0.17862400  1
  H  H40  1  0.91687500  0.50809900  0.79294400  1
  H  H41  1  0.91788300  0.50554000  0.64926400  1
  H  H42  1  0.96416400  0.60710900  0.41392200  1
  H  H43  1  0.93978100  0.84838100  0.37826000  1
  H  H44  1  0.96845300  0.22214600  0.29911600  1
  H  H45  1  0.96701850  0.61311250  0.06750800  1
  H  H46  1  0.94481050  0.86172150  0.07200400  1
  H  H47  1  0.96505600  0.20647800  0.16161400  1
  H  H48  1  0.03494400  0.20647800  0.83838600  1
  H  H49  1  0.05518950  0.86172150  0.92799600  1
  H  H50  1  0.03298150  0.61311250  0.93249200  1
  H  H51  1  0.03154700  0.22214600  0.70088400  1
  H  H52  1  0.06021900  0.84838100  0.62174000  1
  H  H53  1  0.03583600  0.60710900  0.58607800  1
  H  H54  1  0.08211700  0.50554000  0.35073600  1
  H  H55  1  0.08312500  0.50809900  0.20705600  1
  H  H56  1  0.15774650  0.52440450  0.82137600  1
  H  H57  1  0.15813650  0.01623250  0.82812700  1
  H  H58  1  0.16131150  0.79942850  0.48835500  1
  H  H59  1  0.17508100  0.54817700  0.30143000  1
  H  H60  1  0.16550250  0.74751150  0.03644000  1
  H  H61  1  0.17776500  0.01979500  0.29354900  1
  H  H62  1  0.32223500  0.51979500  0.70645100  1
  H  H63  1  0.33449750  0.24751150  0.96356000  1
  H  H64  1  0.32491900  0.04817700  0.69857000  1
  H  H65  1  0.33868850  0.29942850  0.51164500  1
  H  H66  1  0.34186350  0.51623250  0.17187300  1
  H  H67  1  0.34225350  0.02440450  0.17862400  1
  H  H68  1  0.41687500  0.00809900  0.79294400  1
  H  H69  1  0.41788300  0.00554000  0.64926400  1
  H  H70  1  0.46416400  0.10710900  0.41392200  1
  H  H71  1  0.43978100  0.34838100  0.37826000  1
  H  H72  1  0.46845300  0.72214600  0.29911600  1
  H  H73  1  0.46701850  0.11311250  0.06750800  1
  H  H74  1  0.44481050  0.36172150  0.07200400  1
  H  H75  1  0.46505600  0.70647800  0.16161400  1
  S  S76  1  0.60564700  0.70480600  0.51870700  1
  S  S77  1  0.61547050  0.70354650  0.06145800  1
  S  S78  1  0.88452950  0.20354650  0.93854200  1
  S  S79  1  0.89435300  0.20480600  0.48129300  1
  S  S80  1  0.10564700  0.20480600  0.51870700  1
  S  S81  1  0.11547050  0.20354650  0.06145800  1
  S  S82  1  0.38452950  0.70354650  0.93854200  1
  S  S83  1  0.39435300  0.70480600  0.48129300  1
  O  O84  1  0.52572000  0.25124300  0.88845300  1
  O  O85  1  0.53308150  0.22967050  0.64079200  1
  O  O86  1  0.99487450  0.21155650  0.23729200  1
  O  O87  1  0.59581200  0.59900500  0.94103500  1
  O  O88  1  0.58623500  0.62009900  0.62880800  1
  O  O89  1  0.56881600  0.90093000  0.47426000  1
  O  O90  1  0.59382400  0.09482800  0.28301000  1
  O  O91  1  0.59768850  0.52550750  0.42572400  1
  O  O92  1  0.58086950  0.91061750  0.06676000  1
  O  O93  1  0.60579550  0.54556450  0.15703300  1
  O  O94  1  0.70181050  0.01839350  0.82748300  1
  O  O95  1  0.67152400  0.76425500  0.54725200  1
  O  O96  1  0.70195900  0.50884100  0.82654700  1
  O  O97  1  0.70227400  0.27426800  0.53418300  1
  O  O98  1  0.68210400  0.75265900  0.07558400  1
  O  O99  1  0.72004800  0.02740600  0.32188800  1
  O  O100  1  0.70966950  0.25549550  0.05467100  1
  O  O101  1  0.72199850  0.51627150  0.32415200  1
  O  O102  1  0.77800150  0.01627150  0.67584800  1
  O  O103  1  0.79033050  0.75549550  0.94532900  1
  O  O104  1  0.77995200  0.52740600  0.67811200  1
  O  O105  1  0.81789600  0.25265900  0.92441600  1
  O  O106  1  0.79772600  0.77426800  0.46581700  1
  O  O107  1  0.79804100  0.00884100  0.17345300  1
  O  O108  1  0.82847600  0.26425500  0.45274800  1
  O  O109  1  0.79818950  0.51839350  0.17251700  1
  O  O110  1  0.89420450  0.04556450  0.84296700  1
  O  O111  1  0.91913050  0.41061750  0.93324000  1
  O  O112  1  0.90231150  0.02550750  0.57427600  1
  O  O113  1  0.90617600  0.59482800  0.71699000  1
  O  O114  1  0.93118400  0.40093000  0.52574000  1
  O  O115  1  0.91376500  0.12009900  0.37119200  1
  O  O116  1  0.90418800  0.09900500  0.05896500  1
  O  O117  1  0.50512550  0.71155650  0.76270800  1
  O  O118  1  0.96691850  0.72967050  0.35920800  1
  O  O119  1  0.97428000  0.75124300  0.11154700  1
  O  O120  1  0.02572000  0.75124300  0.88845300  1
  O  O121  1  0.03308150  0.72967050  0.64079200  1
  O  O122  1  0.49487450  0.71155650  0.23729200  1
  O  O123  1  0.09581200  0.09900500  0.94103500  1
  O  O124  1  0.08623500  0.12009900  0.62880800  1
  O  O125  1  0.06881600  0.40093000  0.47426000  1
  O  O126  1  0.09382400  0.59482800  0.28301000  1
  O  O127  1  0.09768850  0.02550750  0.42572400  1
  O  O128  1  0.08086950  0.41061750  0.06676000  1
  O  O129  1  0.10579550  0.04556450  0.15703300  1
  O  O130  1  0.20181050  0.51839350  0.82748300  1
  O  O131  1  0.17152400  0.26425500  0.54725200  1
  O  O132  1  0.20195900  0.00884100  0.82654700  1
  O  O133  1  0.20227400  0.77426800  0.53418300  1
  O  O134  1  0.18210400  0.25265900  0.07558400  1
  O  O135  1  0.22004800  0.52740600  0.32188800  1
  O  O136  1  0.20966950  0.75549550  0.05467100  1
  O  O137  1  0.22199850  0.01627150  0.32415200  1
  O  O138  1  0.27800150  0.51627150  0.67584800  1
  O  O139  1  0.29033050  0.25549550  0.94532900  1
  O  O140  1  0.27995200  0.02740600  0.67811200  1
  O  O141  1  0.31789600  0.75265900  0.92441600  1
  O  O142  1  0.29772600  0.27426800  0.46581700  1
  O  O143  1  0.29804100  0.50884100  0.17345300  1
  O  O144  1  0.32847600  0.76425500  0.45274800  1
  O  O145  1  0.29818950  0.01839350  0.17251700  1
  O  O146  1  0.39420450  0.54556450  0.84296700  1
  O  O147  1  0.41913050  0.91061750  0.93324000  1
  O  O148  1  0.40231150  0.52550750  0.57427600  1
  O  O149  1  0.40617600  0.09482800  0.71699000  1
  O  O150  1  0.43118400  0.90093000  0.52574000  1
  O  O151  1  0.41376500  0.62009900  0.37119200  1
  O  O152  1  0.40418800  0.59900500  0.05896500  1
  O  O153  1  0.00512550  0.21155650  0.76270800  1
  O  O154  1  0.46691850  0.22967050  0.35920800  1
  O  O155  1  0.47428000  0.25124300  0.11154700  1
