# generated using pymatgen
data_Li2VO2F
_symmetry_space_group_name_H-M   'P 1'
_cell_length_a   9.42301028
_cell_length_b   4.16039752
_cell_length_c   5.88234983
_cell_angle_alpha   90.00000000
_cell_angle_beta   109.58915522
_cell_angle_gamma   90.00000000
_symmetry_Int_Tables_number   1
_chemical_formula_structural   Li2VO2F
_chemical_formula_sum   'Li8 V4 O8 F4'
_cell_volume   217.26111008
_cell_formula_units_Z   4
loop_
 _symmetry_equiv_pos_site_id
 _symmetry_equiv_pos_as_xyz
  1  'x, y, z'
loop_
 _atom_site_type_symbol
 _atom_site_label
 _atom_site_symmetry_multiplicity
 _atom_site_fract_x
 _atom_site_fract_y
 _atom_site_fract_z
 _atom_site_occupancy
  Li  Li0  1  0.50000000  0.50000000  0.00000000  1
  Li  Li1  1  0.50000000  0.50000000  0.50000000  1
  Li  Li2  1  0.33447850  0.00000000  0.66753825  1
  Li  Li3  1  0.66552150  0.00000000  0.33246175  1
  Li  Li4  1  0.00000000  0.00000000  0.00000000  1
  Li  Li5  1  0.00000000  0.00000000  0.50000000  1
  Li  Li6  1  0.83447850  0.50000000  0.66753825  1
  Li  Li7  1  0.16552150  0.50000000  0.33246175  1
  V  V8  1  0.65254125  0.00000000  0.83391425  1
  V  V9  1  0.34745875  0.00000000  0.16608575  1
  V  V10  1  0.15254125  0.50000000  0.83391425  1
  V  V11  1  0.84745875  0.50000000  0.16608575  1
  O  O12  1  0.50000000  0.00000000  0.00000000  1
  O  O13  1  0.50000000  0.00000000  0.50000000  1
  O  O14  1  0.67172800  0.50000000  0.84700575  1
  O  O15  1  0.82827200  0.00000000  0.15299425  1
  O  O16  1  0.00000000  0.50000000  0.00000000  1
  O  O17  1  0.00000000  0.50000000  0.50000000  1
  O  O18  1  0.17172800  0.00000000  0.84700575  1
  O  O19  1  0.32827200  0.50000000  0.15299425  1
  F  F20  1  0.82044675  0.00000000  0.66562925  1
  F  F21  1  0.67955325  0.50000000  0.33437075  1
  F  F22  1  0.32044675  0.50000000  0.66562925  1
  F  F23  1  0.17955325  0.00000000  0.33437075  1
