# generated using pymatgen
data_Co4NiO8
_symmetry_space_group_name_H-M   'P 1'
_cell_length_a   9.76469200
_cell_length_b   5.61353800
_cell_length_c   5.88420717
_cell_angle_alpha   90.00000000
_cell_angle_beta   124.48124383
_cell_angle_gamma   90.00000000
_symmetry_Int_Tables_number   1
_chemical_formula_structural   Co4NiO8
_chemical_formula_sum   'Co8 Ni2 O16'
_cell_volume   265.87319964
_cell_formula_units_Z   2
loop_
 _symmetry_equiv_pos_site_id
 _symmetry_equiv_pos_as_xyz
  1  'x, y, z'
loop_
 _atom_site_type_symbol
 _atom_site_label
 _atom_site_symmetry_multiplicity
 _atom_site_fract_x
 _atom_site_fract_y
 _atom_site_fract_z
 _atom_site_occupancy
  Co  Co0  1  0.50000000  0.00000000  0.50000000  1
  Co  Co1  1  0.00000000  0.00000000  0.00000000  1
  Co  Co2  1  0.75000000  0.75000000  0.00000000  1
  Co  Co3  1  0.75000000  0.25000000  0.00000000  1
  Co  Co4  1  0.00000000  0.50000000  0.50000000  1
  Co  Co5  1  0.50000000  0.50000000  0.00000000  1
  Co  Co6  1  0.25000000  0.25000000  0.00000000  1
  Co  Co7  1  0.25000000  0.75000000  0.00000000  1
  Ni  Ni8  1  0.00000000  0.50000000  0.00000000  1
  Ni  Ni9  1  0.50000000  0.00000000  0.00000000  1
  O  O10  1  0.23267900  0.50000000  0.19556800  1
  O  O11  1  0.48553050  0.76353150  0.20516000  1
  O  O12  1  0.48553050  0.23646850  0.20516000  1
  O  O13  1  0.24087500  0.00000000  0.20616300  1
  O  O14  1  0.75912500  0.00000000  0.79383700  1
  O  O15  1  0.51446950  0.76353150  0.79484000  1
  O  O16  1  0.51446950  0.23646850  0.79484000  1
  O  O17  1  0.76732100  0.50000000  0.80443200  1
  O  O18  1  0.73267900  0.00000000  0.19556800  1
  O  O19  1  0.98553050  0.26353150  0.20516000  1
  O  O20  1  0.98553050  0.73646850  0.20516000  1
  O  O21  1  0.74087500  0.50000000  0.20616300  1
  O  O22  1  0.25912500  0.50000000  0.79383700  1
  O  O23  1  0.01446950  0.26353150  0.79484000  1
  O  O24  1  0.01446950  0.73646850  0.79484000  1
  O  O25  1  0.26732100  0.00000000  0.80443200  1
