# generated using pymatgen
data_LiCrPO5
_symmetry_space_group_name_H-M   'P 1'
_cell_length_a   6.29237600
_cell_length_b   6.34294500
_cell_length_c   9.07672201
_cell_angle_alpha   90.00000000
_cell_angle_beta   90.00000000
_cell_angle_gamma   90.00000000
_symmetry_Int_Tables_number   1
_chemical_formula_structural   LiCrPO5
_chemical_formula_sum   'Li4 Cr4 P4 O20'
_cell_volume   362.27189782
_cell_formula_units_Z   4
loop_
 _symmetry_equiv_pos_site_id
 _symmetry_equiv_pos_as_xyz
  1  'x, y, z'
loop_
 _atom_site_type_symbol
 _atom_site_label
 _atom_site_symmetry_multiplicity
 _atom_site_fract_x
 _atom_site_fract_y
 _atom_site_fract_z
 _atom_site_occupancy
  Li  Li0  1  0.51994700  0.52015100  0.76350000  1
  Li  Li1  1  0.98005300  0.52015100  0.26350000  1
  Li  Li2  1  0.01994700  0.02015100  0.73650000  1
  Li  Li3  1  0.48005300  0.02015100  0.23650000  1
  Cr  Cr4  1  0.75276800  0.75135400  0.55049400  1
  Cr  Cr5  1  0.74723200  0.75135400  0.05049400  1
  Cr  Cr6  1  0.25276800  0.25135400  0.94950600  1
  Cr  Cr7  1  0.24723200  0.25135400  0.44950600  1
  P  P8  1  0.24815800  0.75212800  0.00017200  1
  P  P9  1  0.25184200  0.75212800  0.50017200  1
  P  P10  1  0.75184200  0.25212800  0.99982800  1
  P  P11  1  0.74815800  0.25212800  0.49982800  1
  O  O12  1  0.23823400  0.94782800  0.89859700  1
  O  O13  1  0.26176600  0.94782800  0.39859700  1
  O  O14  1  0.75951800  0.74207500  0.36472500  1
  O  O15  1  0.74048200  0.74207500  0.86472500  1
  O  O16  1  0.44965600  0.74027900  0.60106200  1
  O  O17  1  0.05493600  0.76517400  0.60290000  1
  O  O18  1  0.44506400  0.76517400  0.10290000  1
  O  O19  1  0.05034400  0.74027900  0.10106200  1
  O  O20  1  0.23647500  0.55508200  0.40048800  1
  O  O21  1  0.26352500  0.55508200  0.90048800  1
  O  O22  1  0.73823400  0.44782800  0.60140300  1
  O  O23  1  0.76176600  0.44782800  0.10140300  1
  O  O24  1  0.94506400  0.26517400  0.39710000  1
  O  O25  1  0.55034400  0.24027900  0.39893800  1
  O  O26  1  0.24048200  0.24207500  0.63527500  1
  O  O27  1  0.25951800  0.24207500  0.13527500  1
  O  O28  1  0.94965600  0.24027900  0.89893800  1
  O  O29  1  0.55493600  0.26517400  0.89710000  1
  O  O30  1  0.73647500  0.05508200  0.09951200  1
  O  O31  1  0.76352500  0.05508200  0.59951200  1
