# generated using pymatgen
data_Li6Nb3Fe3O16
_symmetry_space_group_name_H-M   'P 1'
_cell_length_a   10.51654600
_cell_length_b   6.14538600
_cell_length_c   10.09495746
_cell_angle_alpha   90.00000000
_cell_angle_beta   90.94031560
_cell_angle_gamma   90.00000000
_symmetry_Int_Tables_number   1
_chemical_formula_structural   Li6Nb3Fe3O16
_chemical_formula_sum   'Li12 Nb6 Fe6 O32'
_cell_volume   652.33141907
_cell_formula_units_Z   2
loop_
 _symmetry_equiv_pos_site_id
 _symmetry_equiv_pos_as_xyz
  1  'x, y, z'
loop_
 _atom_site_type_symbol
 _atom_site_label
 _atom_site_symmetry_multiplicity
 _atom_site_fract_x
 _atom_site_fract_y
 _atom_site_fract_z
 _atom_site_occupancy
  Li  Li0  1  0.34120200  0.00000000  0.50100500  1
  Li  Li1  1  0.32879700  0.00000000  0.11045300  1
  Li  Li2  1  0.99486600  0.00000000  0.99503400  1
  Li  Li3  1  0.99111200  0.00000000  0.49924800  1
  Li  Li4  1  0.66351200  0.00000000  0.99365000  1
  Li  Li5  1  0.66748700  0.00000000  0.62398500  1
  Li  Li6  1  0.84120200  0.50000000  0.50100500  1
  Li  Li7  1  0.82879700  0.50000000  0.11045300  1
  Li  Li8  1  0.49486600  0.50000000  0.99503400  1
  Li  Li9  1  0.49111200  0.50000000  0.49924800  1
  Li  Li10  1  0.16351200  0.50000000  0.99365000  1
  Li  Li11  1  0.16748700  0.50000000  0.62398500  1
  Nb  Nb12  1  0.17839300  0.00000000  0.78094500  1
  Nb  Nb13  1  0.58633650  0.24722550  0.28617000  1
  Nb  Nb14  1  0.58633650  0.75277450  0.28617000  1
  Nb  Nb15  1  0.67839300  0.50000000  0.78094500  1
  Nb  Nb16  1  0.08633650  0.74722550  0.28617000  1
  Nb  Nb17  1  0.08633650  0.25277450  0.28617000  1
  Fe  Fe18  1  0.42123750  0.25306050  0.78285700  1
  Fe  Fe19  1  0.42123750  0.74693950  0.78285700  1
  Fe  Fe20  1  0.83506500  0.00000000  0.27995200  1
  Fe  Fe21  1  0.92123750  0.75306050  0.78285700  1
  Fe  Fe22  1  0.92123750  0.24693950  0.78285700  1
  Fe  Fe23  1  0.33506500  0.50000000  0.27995200  1
  O  O24  1  0.42577450  0.27093650  0.38757100  1
  O  O25  1  0.48101600  0.00000000  0.68949900  1
  O  O26  1  0.31654800  0.00000000  0.90914300  1
  O  O27  1  0.00875000  0.00000000  0.67788600  1
  O  O28  1  0.00600800  0.00000000  0.17705400  1
  O  O29  1  0.42577450  0.72906350  0.38757100  1
  O  O30  1  0.26265450  0.23068750  0.67878100  1
  O  O31  1  0.26265450  0.76931250  0.67878100  1
  O  O32  1  0.85022400  0.00000000  0.87638100  1
  O  O33  1  0.15548100  0.00000000  0.39544700  1
  O  O34  1  0.73915950  0.22855750  0.17728900  1
  O  O35  1  0.73915950  0.77144250  0.17728900  1
  O  O36  1  0.66028200  0.00000000  0.40045500  1
  O  O37  1  0.57001300  0.26788300  0.88895800  1
  O  O38  1  0.51126200  0.00000000  0.17860600  1
  O  O39  1  0.57001300  0.73211700  0.88895800  1
  O  O40  1  0.92577450  0.77093650  0.38757100  1
  O  O41  1  0.98101600  0.50000000  0.68949900  1
  O  O42  1  0.81654800  0.50000000  0.90914300  1
  O  O43  1  0.50875000  0.50000000  0.67788600  1
  O  O44  1  0.50600800  0.50000000  0.17705400  1
  O  O45  1  0.92577450  0.22906350  0.38757100  1
  O  O46  1  0.76265450  0.73068750  0.67878100  1
  O  O47  1  0.76265450  0.26931250  0.67878100  1
  O  O48  1  0.35022400  0.50000000  0.87638100  1
  O  O49  1  0.65548100  0.50000000  0.39544700  1
  O  O50  1  0.23915950  0.72855750  0.17728900  1
  O  O51  1  0.23915950  0.27144250  0.17728900  1
  O  O52  1  0.16028200  0.50000000  0.40045500  1
  O  O53  1  0.07001300  0.76788300  0.88895800  1
  O  O54  1  0.01126200  0.50000000  0.17860600  1
  O  O55  1  0.07001300  0.23211700  0.88895800  1
