# generated using pymatgen
data_Li4Ti2Fe3Sb3O16
_symmetry_space_group_name_H-M   'P 1'
_cell_length_a   10.87684679
_cell_length_b   6.14136902
_cell_length_c   9.79301957
_cell_angle_alpha   90.00000000
_cell_angle_beta   91.64074106
_cell_angle_gamma   90.00000000
_symmetry_Int_Tables_number   1
_chemical_formula_structural   Li4Ti2Fe3Sb3O16
_chemical_formula_sum   'Li8 Ti4 Fe6 Sb6 O32'
_cell_volume   653.89306875
_cell_formula_units_Z   2
loop_
 _symmetry_equiv_pos_site_id
 _symmetry_equiv_pos_as_xyz
  1  'x, y, z'
loop_
 _atom_site_type_symbol
 _atom_site_label
 _atom_site_symmetry_multiplicity
 _atom_site_fract_x
 _atom_site_fract_y
 _atom_site_fract_z
 _atom_site_occupancy
  Li  Li0  1  0.82530600  0.50000000  0.10554750  1
  Li  Li1  1  0.51015700  0.50000000  0.01639500  1
  Li  Li2  1  0.49973550  0.50000000  0.49623250  1
  Li  Li3  1  0.67726950  0.00000000  0.59892700  1
  Li  Li4  1  0.32530600  0.00000000  0.10554750  1
  Li  Li5  1  0.01015700  0.00000000  0.01639500  1
  Li  Li6  1  0.99973550  0.00000000  0.49623250  1
  Li  Li7  1  0.17726950  0.50000000  0.59892700  1
  Ti  Ti8  1  0.81705250  0.50000000  0.49721300  1
  Ti  Ti9  1  0.63542550  0.00000000  0.02856400  1
  Ti  Ti10  1  0.31705250  0.00000000  0.49721300  1
  Ti  Ti11  1  0.13542550  0.50000000  0.02856400  1
  Fe  Fe12  1  0.57587750  0.75850800  0.29055000  1
  Fe  Fe13  1  0.57587750  0.24149200  0.29055000  1
  Fe  Fe14  1  0.67291000  0.50000000  0.78642550  1
  Fe  Fe15  1  0.07587750  0.25850800  0.29055000  1
  Fe  Fe16  1  0.07587750  0.74149200  0.29055000  1
  Fe  Fe17  1  0.17291000  0.00000000  0.78642550  1
  Sb  Sb18  1  0.81990750  0.00000000  0.28312200  1
  Sb  Sb19  1  0.92017150  0.25668150  0.78325400  1
  Sb  Sb20  1  0.92017150  0.74331850  0.78325400  1
  Sb  Sb21  1  0.31990750  0.50000000  0.28312200  1
  Sb  Sb22  1  0.42017150  0.75668150  0.78325400  1
  Sb  Sb23  1  0.42017150  0.24331850  0.78325400  1
  O  O24  1  0.99016600  0.50000000  0.66212000  1
  O  O25  1  0.84476250  0.50000000  0.89679200  1
  O  O26  1  0.50023850  0.50000000  0.68273250  1
  O  O27  1  0.98505850  0.00000000  0.20016650  1
  O  O28  1  0.85017700  0.00000000  0.89404650  1
  O  O29  1  0.66803650  0.50000000  0.41801150  1
  O  O30  1  0.66823100  0.00000000  0.39504750  1
  O  O31  1  0.51016100  0.00000000  0.14336850  1
  O  O32  1  0.89765550  0.24979550  0.40564550  1
  O  O33  1  0.89765550  0.75020450  0.40564550  1
  O  O34  1  0.77203600  0.28083600  0.65500050  1
  O  O35  1  0.77203600  0.71916400  0.65500050  1
  O  O36  1  0.73764200  0.78919200  0.15033100  1
  O  O37  1  0.73764200  0.21080800  0.15033100  1
  O  O38  1  0.57818600  0.75549200  0.90812600  1
  O  O39  1  0.57818600  0.24450800  0.90812600  1
  O  O40  1  0.49016600  0.00000000  0.66212000  1
  O  O41  1  0.34476250  0.00000000  0.89679200  1
  O  O42  1  0.00023850  0.00000000  0.68273250  1
  O  O43  1  0.48505850  0.50000000  0.20016650  1
  O  O44  1  0.35017700  0.50000000  0.89404650  1
  O  O45  1  0.16803650  0.00000000  0.41801150  1
  O  O46  1  0.16823100  0.50000000  0.39504750  1
  O  O47  1  0.01016100  0.50000000  0.14336850  1
  O  O48  1  0.39765550  0.74979550  0.40564550  1
  O  O49  1  0.39765550  0.25020450  0.40564550  1
  O  O50  1  0.27203600  0.78083600  0.65500050  1
  O  O51  1  0.27203600  0.21916400  0.65500050  1
  O  O52  1  0.23764200  0.28919200  0.15033100  1
  O  O53  1  0.23764200  0.71080800  0.15033100  1
  O  O54  1  0.07818600  0.25549200  0.90812600  1
  O  O55  1  0.07818600  0.74450800  0.90812600  1
