# generated using pymatgen
data_V5Co(PO4)6
_symmetry_space_group_name_H-M   'P 1'
_cell_length_a   8.65444012
_cell_length_b   8.65444012
_cell_length_c   20.74898551
_cell_angle_alpha   90.00000000
_cell_angle_beta   90.00000000
_cell_angle_gamma   120.00000000
_symmetry_Int_Tables_number   1
_chemical_formula_structural   V5Co(PO4)6
_chemical_formula_sum   'V15 Co3 P18 O72'
_cell_volume   1345.87725693
_cell_formula_units_Z   3
loop_
 _symmetry_equiv_pos_site_id
 _symmetry_equiv_pos_as_xyz
  1  'x, y, z'
loop_
 _atom_site_type_symbol
 _atom_site_label
 _atom_site_symmetry_multiplicity
 _atom_site_fract_x
 _atom_site_fract_y
 _atom_site_fract_z
 _atom_site_occupancy
  V  V0  1  0.33333333  0.66666667  0.66920533  1
  V  V1  1  0.33333333  0.66666667  0.31159800  1
  V  V2  1  0.33333333  0.66666667  0.16711133  1
  V  V3  1  0.33333333  0.66666667  0.52441667  1
  V  V4  1  0.33333333  0.66666667  0.02185000  1
  V  V5  1  0.00000000  0.00000000  0.00253867  1
  V  V6  1  0.00000000  0.00000000  0.64493133  1
  V  V7  1  0.00000000  0.00000000  0.50044467  1
  V  V8  1  0.00000000  0.00000000  0.85775000  1
  V  V9  1  0.00000000  0.00000000  0.35518333  1
  V  V10  1  0.66666667  0.33333333  0.33587200  1
  V  V11  1  0.66666667  0.33333333  0.97826467  1
  V  V12  1  0.66666667  0.33333333  0.83377800  1
  V  V13  1  0.66666667  0.33333333  0.19108333  1
  V  V14  1  0.66666667  0.33333333  0.68851667  1
  Co  Co15  1  0.33333333  0.66666667  0.81246567  1
  Co  Co16  1  0.00000000  0.00000000  0.14579900  1
  Co  Co17  1  0.66666667  0.33333333  0.47913233  1
  P  P18  1  0.99965500  0.70516000  0.24997100  1
  P  P19  1  0.70550500  0.00034500  0.24997100  1
  P  P20  1  0.29484000  0.29449500  0.24997100  1
  P  P21  1  0.37229167  0.03896333  0.08250733  1
  P  P22  1  0.96103667  0.33332833  0.08250733  1
  P  P23  1  0.66667167  0.62770833  0.08250733  1
  P  P24  1  0.66632167  0.03849333  0.58330433  1
  P  P25  1  0.37217167  0.33367833  0.58330433  1
  P  P26  1  0.96150667  0.62782833  0.58330433  1
  P  P27  1  0.03895833  0.37229667  0.41584067  1
  P  P28  1  0.62770333  0.66666167  0.41584067  1
  P  P29  1  0.33333833  0.96104167  0.41584067  1
  P  P30  1  0.33298833  0.37182667  0.91663767  1
  P  P31  1  0.03883833  0.66701167  0.91663767  1
  P  P32  1  0.62817333  0.96116167  0.91663767  1
  P  P33  1  0.70562500  0.70563000  0.74917400  1
  P  P34  1  0.29437000  0.99999500  0.74917400  1
  P  P35  1  0.00000500  0.29437500  0.74917400  1
  O  O36  1  0.13821867  0.65759333  0.97773833  1
  O  O37  1  0.51937467  0.86178133  0.97773833  1
  O  O38  1  0.34240667  0.48062533  0.97773833  1
  O  O39  1  0.83295567  0.51611833  0.26209433  1
  O  O40  1  0.99610167  0.79290333  0.18819133  1
  O  O41  1  0.16749267  0.67856833  0.24594933  1
  O  O42  1  0.68316267  0.16704433  0.26209433  1
  O  O43  1  0.51107567  0.83250733  0.24594933  1
  O  O44  1  0.46762833  0.13714667  0.14348267  1
  O  O45  1  0.32143167  0.48892433  0.24594933  1
  O  O46  1  0.18725067  0.01941933  0.07056033  1
  O  O47  1  0.86285333  0.33048167  0.14348267  1
  O  O48  1  0.79680167  0.00389833  0.18819133  1
  O  O49  1  0.48388167  0.31683733  0.26209433  1
  O  O50  1  0.34950667  0.84657033  0.08853033  1
  O  O51  1  0.20709667  0.20319833  0.18819133  1
  O  O52  1  0.15342967  0.50293633  0.08853033  1
  O  O53  1  0.98058067  0.16783133  0.07056033  1
  O  O54  1  0.49706367  0.65049333  0.08853033  1
  O  O55  1  0.66951833  0.53237167  0.14348267  1
  O  O56  1  0.83216867  0.81274933  0.07056033  1
  O  O57  1  0.31732800  0.84846900  0.35543000  1
  O  O58  1  0.15153100  0.46885900  0.35543000  1
  O  O59  1  0.53114100  0.68267200  0.35543000  1
  O  O60  1  0.80488533  0.99092667  0.31107167  1
  O  O61  1  0.18604133  0.19511467  0.31107167  1
  O  O62  1  0.00907333  0.81395867  0.31107167  1
  O  O63  1  0.49962233  0.84945167  0.59542767  1
  O  O64  1  0.66276833  0.12623667  0.52152467  1
  O  O65  1  0.83415933  0.01190167  0.57928267  1
  O  O66  1  0.34982933  0.50037767  0.59542767  1
  O  O67  1  0.17774233  0.16584067  0.57928267  1
  O  O68  1  0.13429500  0.47048000  0.47681600  1
  O  O69  1  0.98809833  0.82225767  0.57928267  1
  O  O70  1  0.85391733  0.35275267  0.40389367  1
  O  O71  1  0.52952000  0.66381500  0.47681600  1
  O  O72  1  0.46346833  0.33723167  0.52152467  1
  O  O73  1  0.15054833  0.65017067  0.59542767  1
  O  O74  1  0.01617333  0.17990367  0.42186367  1
  O  O75  1  0.87376333  0.53653167  0.52152467  1
  O  O76  1  0.82009633  0.83626967  0.42186367  1
  O  O77  1  0.64724733  0.50116467  0.40389367  1
  O  O78  1  0.16373033  0.98382667  0.42186367  1
  O  O79  1  0.33618500  0.86570500  0.47681600  1
  O  O80  1  0.49883533  0.14608267  0.40389367  1
  O  O81  1  0.98399467  0.18180233  0.68876333  1
  O  O82  1  0.81819767  0.80219233  0.68876333  1
  O  O83  1  0.19780767  0.01600533  0.68876333  1
  O  O84  1  0.47155200  0.32426000  0.64440500  1
  O  O85  1  0.85270800  0.52844800  0.64440500  1
  O  O86  1  0.67574000  0.14729200  0.64440500  1
  O  O87  1  0.16628900  0.18278500  0.92876100  1
  O  O88  1  0.32943500  0.45957000  0.85485800  1
  O  O89  1  0.50082600  0.34523500  0.91261600  1
  O  O90  1  0.01649600  0.83371100  0.92876100  1
  O  O91  1  0.84440900  0.49917400  0.91261600  1
  O  O92  1  0.80096167  0.80381333  0.81014933  1
  O  O93  1  0.65476500  0.15559100  0.91261600  1
  O  O94  1  0.52058400  0.68608600  0.73722700  1
  O  O95  1  0.19618667  0.99714833  0.81014933  1
  O  O96  1  0.13013500  0.67056500  0.85485800  1
  O  O97  1  0.81721500  0.98350400  0.92876100  1
  O  O98  1  0.68284000  0.51323700  0.75519700  1
  O  O99  1  0.54043000  0.86986500  0.85485800  1
  O  O100  1  0.48676300  0.16960300  0.75519700  1
  O  O101  1  0.31391400  0.83449800  0.73722700  1
  O  O102  1  0.83039700  0.31716000  0.75519700  1
  O  O103  1  0.00285167  0.19903833  0.81014933  1
  O  O104  1  0.16550200  0.47941600  0.73722700  1
  O  O105  1  0.65066133  0.51513567  0.02209667  1
  O  O106  1  0.48486433  0.13552567  0.02209667  1
  O  O107  1  0.86447433  0.34933867  0.02209667  1
