# generated using pymatgen
data_Li4Ti3Fe2Co3O16
_symmetry_space_group_name_H-M   'P 1'
_cell_length_a   9.94638200
_cell_length_b   5.83056848
_cell_length_c   9.53070059
_cell_angle_alpha   90.00000000
_cell_angle_beta   90.21333593
_cell_angle_gamma   90.00000000
_symmetry_Int_Tables_number   1
_chemical_formula_structural   Li4Ti3Fe2Co3O16
_chemical_formula_sum   'Li8 Ti6 Fe4 Co6 O32'
_cell_volume   552.71067285
_cell_formula_units_Z   2
loop_
 _symmetry_equiv_pos_site_id
 _symmetry_equiv_pos_as_xyz
  1  'x, y, z'
loop_
 _atom_site_type_symbol
 _atom_site_label
 _atom_site_symmetry_multiplicity
 _atom_site_fract_x
 _atom_site_fract_y
 _atom_site_fract_z
 _atom_site_occupancy
  Li  Li0  1  0.83458250  0.50000000  0.88968800  1
  Li  Li1  1  0.51490150  0.50000000  0.99486100  1
  Li  Li2  1  0.50991350  0.50000000  0.49808000  1
  Li  Li3  1  0.16834850  0.50000000  0.39645200  1
  Li  Li4  1  0.33458250  0.00000000  0.88968800  1
  Li  Li5  1  0.01490150  0.00000000  0.99486100  1
  Li  Li6  1  0.00991350  0.00000000  0.49808000  1
  Li  Li7  1  0.66834850  0.00000000  0.39645200  1
  Ti  Ti8  1  0.91693950  0.74206250  0.21568500  1
  Ti  Ti9  1  0.91693950  0.25793750  0.21568500  1
  Ti  Ti10  1  0.33166700  0.50000000  0.71771300  1
  Ti  Ti11  1  0.41693950  0.24206250  0.21568500  1
  Ti  Ti12  1  0.41693950  0.75793750  0.21568500  1
  Ti  Ti13  1  0.83166700  0.00000000  0.71771300  1
  Fe  Fe14  1  0.83800000  0.50000000  0.49383500  1
  Fe  Fe15  1  0.16689500  0.50000000  0.99017700  1
  Fe  Fe16  1  0.33800000  0.00000000  0.49383500  1
  Fe  Fe17  1  0.66689500  0.00000000  0.99017700  1
  Co  Co18  1  0.67640000  0.50000000  0.21322400  1
  Co  Co19  1  0.08929250  0.74060550  0.71315500  1
  Co  Co20  1  0.08929250  0.25939450  0.71315500  1
  Co  Co21  1  0.17640000  0.00000000  0.21322400  1
  Co  Co22  1  0.58929250  0.24060550  0.71315500  1
  Co  Co23  1  0.58929250  0.75939450  0.71315500  1
  O  O24  1  0.92271150  0.75360950  0.60124200  1
  O  O25  1  0.98636500  0.50000000  0.33546100  1
  O  O26  1  0.84045900  0.50000000  0.10050900  1
  O  O27  1  0.50872900  0.50000000  0.31064400  1
  O  O28  1  0.50875900  0.50000000  0.80891100  1
  O  O29  1  0.92271150  0.24639050  0.60124200  1
  O  O30  1  0.76158900  0.71831100  0.33829100  1
  O  O31  1  0.76158900  0.28168900  0.33829100  1
  O  O32  1  0.34103050  0.50000000  0.09947300  1
  O  O33  1  0.66587850  0.50000000  0.61014000  1
  O  O34  1  0.24439400  0.71802400  0.83809400  1
  O  O35  1  0.24439400  0.28197600  0.83809400  1
  O  O36  1  0.16791300  0.50000000  0.60454100  1
  O  O37  1  0.08607100  0.75197900  0.10356300  1
  O  O38  1  0.02248750  0.50000000  0.82591200  1
  O  O39  1  0.08607100  0.24802100  0.10356300  1
  O  O40  1  0.42271150  0.25360950  0.60124200  1
  O  O41  1  0.48636500  0.00000000  0.33546100  1
  O  O42  1  0.34045900  0.00000000  0.10050900  1
  O  O43  1  0.00872900  0.00000000  0.31064400  1
  O  O44  1  0.00875900  0.00000000  0.80891100  1
  O  O45  1  0.42271150  0.74639050  0.60124200  1
  O  O46  1  0.26158900  0.21831100  0.33829100  1
  O  O47  1  0.26158900  0.78168900  0.33829100  1
  O  O48  1  0.84103050  0.00000000  0.09947300  1
  O  O49  1  0.16587850  0.00000000  0.61014000  1
  O  O50  1  0.74439400  0.21802400  0.83809400  1
  O  O51  1  0.74439400  0.78197600  0.83809400  1
  O  O52  1  0.66791300  0.00000000  0.60454100  1
  O  O53  1  0.58607100  0.25197900  0.10356300  1
  O  O54  1  0.52248750  0.00000000  0.82591200  1
  O  O55  1  0.58607100  0.74802100  0.10356300  1
