# generated using pymatgen
data_Li2TiMnO4
_symmetry_space_group_name_H-M   'P 1'
_cell_length_a   5.21969155
_cell_length_b   3.00754677
_cell_length_c   5.36296938
_cell_angle_alpha   90.00000000
_cell_angle_beta   110.79254820
_cell_angle_gamma   90.00000000
_symmetry_Int_Tables_number   1
_chemical_formula_structural   Li2TiMnO4
_chemical_formula_sum   'Li2 Ti1 Mn1 O4'
_cell_volume   78.70723066
_cell_formula_units_Z   1
loop_
 _symmetry_equiv_pos_site_id
 _symmetry_equiv_pos_as_xyz
  1  'x, y, z'
loop_
 _atom_site_type_symbol
 _atom_site_label
 _atom_site_symmetry_multiplicity
 _atom_site_fract_x
 _atom_site_fract_y
 _atom_site_fract_z
 _atom_site_occupancy
  Li  Li0  1  0.00000000  0.00000000  0.00000000  1
  Li  Li1  1  0.00000000  0.50000000  0.50000000  1
  Ti  Ti2  1  0.50000000  0.00000000  0.50000000  1
  Mn  Mn3  1  0.50000000  0.50000000  0.00000000  1
  O  O4  1  0.27556150  0.00000000  0.72512350  1
  O  O5  1  0.72443850  0.00000000  0.27487650  1
  O  O6  1  0.26648800  0.50000000  0.27694125  1
  O  O7  1  0.73351200  0.50000000  0.72305875  1
