# generated using pymatgen
data_Li6Cr2O7
_symmetry_space_group_name_H-M   'P 1'
_cell_length_a   9.98771000
_cell_length_b   5.70304600
_cell_length_c   9.63468705
_cell_angle_alpha   90.00000000
_cell_angle_beta   100.81969858
_cell_angle_gamma   90.00000000
_symmetry_Int_Tables_number   1
_chemical_formula_structural   Li6Cr2O7
_chemical_formula_sum   'Li24 Cr8 O28'
_cell_volume   539.03927398
_cell_formula_units_Z   4
loop_
 _symmetry_equiv_pos_site_id
 _symmetry_equiv_pos_as_xyz
  1  'x, y, z'
loop_
 _atom_site_type_symbol
 _atom_site_label
 _atom_site_symmetry_multiplicity
 _atom_site_fract_x
 _atom_site_fract_y
 _atom_site_fract_z
 _atom_site_occupancy
  Li  Li0  1  0.92934050  0.40078250  0.88512200  1
  Li  Li1  1  0.93331800  0.85531300  0.89997500  1
  Li  Li2  1  0.92934050  0.59921750  0.38512200  1
  Li  Li3  1  0.93331800  0.14468700  0.39997500  1
  Li  Li4  1  0.79538200  0.12661400  0.61561300  1
  Li  Li5  1  0.79538200  0.87338600  0.11561300  1
  Li  Li6  1  0.70461800  0.62661400  0.88438700  1
  Li  Li7  1  0.70461800  0.37338600  0.38438700  1
  Li  Li8  1  0.56668200  0.35531300  0.60002500  1
  Li  Li9  1  0.57065950  0.90078250  0.61487800  1
  Li  Li10  1  0.56668200  0.64468700  0.10002500  1
  Li  Li11  1  0.57065950  0.09921750  0.11487800  1
  Li  Li12  1  0.42934050  0.90078250  0.88512200  1
  Li  Li13  1  0.43331800  0.35531300  0.89997500  1
  Li  Li14  1  0.42934050  0.09921750  0.38512200  1
  Li  Li15  1  0.43331800  0.64468700  0.39997500  1
  Li  Li16  1  0.29538200  0.62661400  0.61561300  1
  Li  Li17  1  0.29538200  0.37338600  0.11561300  1
  Li  Li18  1  0.20461800  0.12661400  0.88438700  1
  Li  Li19  1  0.20461800  0.87338600  0.38438700  1
  Li  Li20  1  0.06668200  0.85531300  0.60002500  1
  Li  Li21  1  0.07065950  0.40078250  0.61487800  1
  Li  Li22  1  0.06668200  0.14468700  0.10002500  1
  Li  Li23  1  0.07065950  0.59921750  0.11487800  1
  Cr  Cr24  1  0.81572350  0.62346250  0.63072400  1
  Cr  Cr25  1  0.81572350  0.37653750  0.13072400  1
  Cr  Cr26  1  0.68427650  0.12346250  0.86927600  1
  Cr  Cr27  1  0.68427650  0.87653750  0.36927600  1
  Cr  Cr28  1  0.31572350  0.12346250  0.63072400  1
  Cr  Cr29  1  0.31572350  0.87653750  0.13072400  1
  Cr  Cr30  1  0.18427650  0.62346250  0.86927600  1
  Cr  Cr31  1  0.18427650  0.37653750  0.36927600  1
  O  O32  1  0.87668250  0.38724950  0.52856100  1
  O  O33  1  0.87668250  0.61275050  0.02856100  1
  O  O34  1  0.86326150  0.13484950  0.99775800  1
  O  O35  1  0.75387250  0.88112850  0.74909900  1
  O  O36  1  0.74612750  0.38112850  0.75090100  1
  O  O37  1  0.86326150  0.86515050  0.49775800  1
  O  O38  1  0.63673850  0.63484950  0.50224200  1
  O  O39  1  0.75387250  0.11887150  0.24909900  1
  O  O40  1  0.74612750  0.61887150  0.25090100  1
  O  O41  1  0.63673850  0.36515050  0.00224200  1
  O  O42  1  0.62331750  0.88724950  0.97143900  1
  O  O43  1  0.00000000  0.65191400  0.75000000  1
  O  O44  1  0.62331750  0.11275050  0.47143900  1
  O  O45  1  0.00000000  0.34808600  0.25000000  1
  O  O46  1  0.37668250  0.88724950  0.52856100  1
  O  O47  1  0.37668250  0.11275050  0.02856100  1
  O  O48  1  0.36326150  0.63484950  0.99775800  1
  O  O49  1  0.25387250  0.38112850  0.74909900  1
  O  O50  1  0.24612750  0.88112850  0.75090100  1
  O  O51  1  0.36326150  0.36515050  0.49775800  1
  O  O52  1  0.13673850  0.13484950  0.50224200  1
  O  O53  1  0.25387250  0.61887150  0.24909900  1
  O  O54  1  0.24612750  0.11887150  0.25090100  1
  O  O55  1  0.13673850  0.86515050  0.00224200  1
  O  O56  1  0.12331750  0.38724950  0.97143900  1
  O  O57  1  0.50000000  0.15191400  0.75000000  1
  O  O58  1  0.12331750  0.61275050  0.47143900  1
  O  O59  1  0.50000000  0.84808600  0.25000000  1
