# generated using pymatgen
data_MnV(PO4)2
_symmetry_space_group_name_H-M   'P 1'
_cell_length_a   8.66787584
_cell_length_b   8.66787584
_cell_length_c   21.11084692
_cell_angle_alpha   90.00000000
_cell_angle_beta   90.00000000
_cell_angle_gamma   120.00000000
_symmetry_Int_Tables_number   1
_chemical_formula_structural   MnV(PO4)2
_chemical_formula_sum   'Mn9 V9 P18 O72'
_cell_volume   1373.60433244
_cell_formula_units_Z   9
loop_
 _symmetry_equiv_pos_site_id
 _symmetry_equiv_pos_as_xyz
  1  'x, y, z'
loop_
 _atom_site_type_symbol
 _atom_site_label
 _atom_site_symmetry_multiplicity
 _atom_site_fract_x
 _atom_site_fract_y
 _atom_site_fract_z
 _atom_site_occupancy
  Mn  Mn0  1  0.33333333  0.66666667  0.66435967  1
  Mn  Mn1  1  0.33333333  0.66666667  0.52170467  1
  Mn  Mn2  1  0.33333333  0.66666667  0.16576267  1
  Mn  Mn3  1  0.00000000  0.00000000  0.99769300  1
  Mn  Mn4  1  0.00000000  0.00000000  0.85503800  1
  Mn  Mn5  1  0.00000000  0.00000000  0.49909600  1
  Mn  Mn6  1  0.66666667  0.33333333  0.33102633  1
  Mn  Mn7  1  0.66666667  0.33333333  0.18837133  1
  Mn  Mn8  1  0.66666667  0.33333333  0.83242933  1
  V  V9  1  0.33333333  0.66666667  0.02161067  1
  V  V10  1  0.33333333  0.66666667  0.81005467  1
  V  V11  1  0.33333333  0.66666667  0.31193467  1
  V  V12  1  0.00000000  0.00000000  0.35494400  1
  V  V13  1  0.00000000  0.00000000  0.14338800  1
  V  V14  1  0.00000000  0.00000000  0.64526800  1
  V  V15  1  0.66666667  0.33333333  0.68827733  1
  V  V16  1  0.66666667  0.33333333  0.47672133  1
  V  V17  1  0.66666667  0.33333333  0.97860133  1
  P  P18  1  0.37068333  0.03821967  0.08358167  1
  P  P19  1  0.66753633  0.62931667  0.08358167  1
  P  P20  1  0.96178033  0.33246367  0.08358167  1
  P  P21  1  0.70793567  0.99657233  0.25073733  1
  P  P22  1  0.00342767  0.71136333  0.25073733  1
  P  P23  1  0.28863667  0.29206433  0.25073733  1
  P  P24  1  0.03735000  0.37155300  0.41691500  1
  P  P25  1  0.33420300  0.96265000  0.41691500  1
  P  P26  1  0.62844700  0.66579700  0.41691500  1
  P  P27  1  0.37460233  0.32990567  0.58407067  1
  P  P28  1  0.67009433  0.04469667  0.58407067  1
  P  P29  1  0.95530333  0.62539767  0.58407067  1
  P  P30  1  0.70401667  0.70488633  0.75024833  1
  P  P31  1  0.00086967  0.29598333  0.75024833  1
  P  P32  1  0.29511367  0.99913033  0.75024833  1
  P  P33  1  0.04126900  0.66323900  0.91740400  1
  P  P34  1  0.33676100  0.37803000  0.91740400  1
  P  P35  1  0.62197000  0.95873100  0.91740400  1
  O  O36  1  0.33886433  0.86125767  0.35647367  1
  O  O37  1  0.52239333  0.66113567  0.35647367  1
  O  O38  1  0.13874233  0.47760667  0.35647367  1
  O  O39  1  0.18049533  0.01687867  0.07800567  1
  O  O40  1  0.46249867  0.12345033  0.14447633  1
  O  O41  1  0.34386433  0.84521967  0.08409167  1
  O  O42  1  0.83638333  0.81950467  0.07800567  1
  O  O43  1  0.50135533  0.65613567  0.08409167  1
  O  O44  1  0.80721000  0.99623400  0.18949100  1
  O  O45  1  0.15478033  0.49864467  0.08409167  1
  O  O46  1  0.69198767  0.16284233  0.25898533  1
  O  O47  1  0.00376600  0.81097600  0.18949100  1
  O  O48  1  0.66095167  0.53750133  0.14447633  1
  O  O49  1  0.98312133  0.16361667  0.07800567  1
  O  O50  1  0.51855433  0.82624567  0.24572267  1
  O  O51  1  0.87654967  0.33904833  0.14447633  1
  O  O52  1  0.17375433  0.69230867  0.24572267  1
  O  O53  1  0.83715767  0.52914533  0.25898533  1
  O  O54  1  0.30769133  0.48144567  0.24572267  1
  O  O55  1  0.18902400  0.19279000  0.18949100  1
  O  O56  1  0.47085467  0.30801233  0.25898533  1
  O  O57  1  0.51186167  0.86243633  0.97662533  1
  O  O58  1  0.13756367  0.64942533  0.97662533  1
  O  O59  1  0.35057467  0.48813833  0.97662533  1
  O  O60  1  0.00553100  0.19459100  0.68980700  1
  O  O61  1  0.18906000  0.99446900  0.68980700  1
  O  O62  1  0.80540900  0.81094000  0.68980700  1
  O  O63  1  0.84716200  0.35021200  0.41133900  1
  O  O64  1  0.12916533  0.45678367  0.47780967  1
  O  O65  1  0.01053100  0.17855300  0.41742500  1
  O  O66  1  0.50305000  0.15283800  0.41133900  1
  O  O67  1  0.16802200  0.98946900  0.41742500  1
  O  O68  1  0.47387667  0.32956733  0.52282433  1
  O  O69  1  0.82144700  0.83197800  0.41742500  1
  O  O70  1  0.35865433  0.49617567  0.59231867  1
  O  O71  1  0.67043267  0.14430933  0.52282433  1
  O  O72  1  0.32761833  0.87083467  0.47780967  1
  O  O73  1  0.64978800  0.49695000  0.41133900  1
  O  O74  1  0.18522100  0.15957900  0.57905600  1
  O  O75  1  0.54321633  0.67238167  0.47780967  1
  O  O76  1  0.84042100  0.02564200  0.57905600  1
  O  O77  1  0.50382433  0.86247867  0.59231867  1
  O  O78  1  0.97435800  0.81477900  0.57905600  1
  O  O79  1  0.85569067  0.52612333  0.52282433  1
  O  O80  1  0.13752133  0.64134567  0.59231867  1
  O  O81  1  0.17852833  0.19576967  0.30995867  1
  O  O82  1  0.80423033  0.98275867  0.30995867  1
  O  O83  1  0.01724133  0.82147167  0.30995867  1
  O  O84  1  0.67219767  0.52792433  0.02314033  1
  O  O85  1  0.85572667  0.32780233  0.02314033  1
  O  O86  1  0.47207567  0.14427333  0.02314033  1
  O  O87  1  0.51382867  0.68354533  0.74467233  1
  O  O88  1  0.79583200  0.79011700  0.81114300  1
  O  O89  1  0.67719767  0.51188633  0.75075833  1
  O  O90  1  0.16971667  0.48617133  0.74467233  1
  O  O91  1  0.83468867  0.32280233  0.75075833  1
  O  O92  1  0.14054333  0.66290067  0.85615767  1
  O  O93  1  0.48811367  0.16531133  0.75075833  1
  O  O94  1  0.02532100  0.82950900  0.92565200  1
  O  O95  1  0.33709933  0.47764267  0.85615767  1
  O  O96  1  0.99428500  0.20416800  0.81114300  1
  O  O97  1  0.31645467  0.83028333  0.74467233  1
  O  O98  1  0.85188767  0.49291233  0.91238933  1
  O  O99  1  0.20988300  0.00571500  0.81114300  1
  O  O100  1  0.50708767  0.35897533  0.91238933  1
  O  O101  1  0.17049100  0.19581200  0.92565200  1
  O  O102  1  0.64102467  0.14811233  0.91238933  1
  O  O103  1  0.52235733  0.85945667  0.85615767  1
  O  O104  1  0.80418800  0.97467900  0.92565200  1
  O  O105  1  0.84519500  0.52910300  0.64329200  1
  O  O106  1  0.47089700  0.31609200  0.64329200  1
  O  O107  1  0.68390800  0.15480500  0.64329200  1
