# generated using pymatgen
data_Li2Cr2H4O9
_symmetry_space_group_name_H-M   'P 1'
_cell_length_a   7.61418000
_cell_length_b   7.84556800
_cell_length_c   12.97302450
_cell_angle_alpha   90.00000000
_cell_angle_beta   96.35732745
_cell_angle_gamma   90.00000000
_symmetry_Int_Tables_number   1
_chemical_formula_structural   Li2Cr2H4O9
_chemical_formula_sum   'Li8 Cr8 H16 O36'
_cell_volume   770.21132540
_cell_formula_units_Z   4
loop_
 _symmetry_equiv_pos_site_id
 _symmetry_equiv_pos_as_xyz
  1  'x, y, z'
loop_
 _atom_site_type_symbol
 _atom_site_label
 _atom_site_symmetry_multiplicity
 _atom_site_fract_x
 _atom_site_fract_y
 _atom_site_fract_z
 _atom_site_occupancy
  Li  Li0  1  0.75000000  0.25000000  0.50000000  1
  Li  Li1  1  0.75000000  0.75000000  0.00000000  1
  Li  Li2  1  0.50000000  0.27719000  0.25000000  1
  Li  Li3  1  0.50000000  0.72281000  0.75000000  1
  Li  Li4  1  0.25000000  0.75000000  0.50000000  1
  Li  Li5  1  0.25000000  0.25000000  0.00000000  1
  Li  Li6  1  0.00000000  0.77719000  0.25000000  1
  Li  Li7  1  0.00000000  0.22281000  0.75000000  1
  Cr  Cr8  1  0.37506500  0.63597800  0.14010800  1
  Cr  Cr9  1  0.37506500  0.36402200  0.64010800  1
  Cr  Cr10  1  0.62493500  0.36402200  0.85989200  1
  Cr  Cr11  1  0.62493500  0.63597800  0.35989200  1
  Cr  Cr12  1  0.87506500  0.13597800  0.14010800  1
  Cr  Cr13  1  0.87506500  0.86402200  0.64010800  1
  Cr  Cr14  1  0.12493500  0.86402200  0.85989200  1
  Cr  Cr15  1  0.12493500  0.13597800  0.35989200  1
  H  H16  1  0.49892550  0.07971950  0.40097200  1
  H  H17  1  0.49892550  0.92028050  0.90097200  1
  H  H18  1  0.50107450  0.92028050  0.59902800  1
  H  H19  1  0.50107450  0.07971950  0.09902800  1
  H  H20  1  0.66747500  0.03360700  0.34953600  1
  H  H21  1  0.66747500  0.96639300  0.84953600  1
  H  H22  1  0.33252500  0.96639300  0.65046400  1
  H  H23  1  0.33252500  0.03360700  0.15046400  1
  H  H24  1  0.99892550  0.57971950  0.40097200  1
  H  H25  1  0.99892550  0.42028050  0.90097200  1
  H  H26  1  0.00107450  0.42028050  0.59902800  1
  H  H27  1  0.00107450  0.57971950  0.09902800  1
  H  H28  1  0.16747500  0.53360700  0.34953600  1
  H  H29  1  0.16747500  0.46639300  0.84953600  1
  H  H30  1  0.83252500  0.46639300  0.65046400  1
  H  H31  1  0.83252500  0.53360700  0.15046400  1
  O  O32  1  0.50000000  0.53454500  0.25000000  1
  O  O33  1  0.50000000  0.46545500  0.75000000  1
  O  O34  1  0.26244850  0.79566850  0.18098400  1
  O  O35  1  0.26244850  0.20433150  0.68098400  1
  O  O36  1  0.73755150  0.20433150  0.81901600  1
  O  O37  1  0.73755150  0.79566850  0.31901600  1
  O  O38  1  0.74009300  0.99394500  0.08342500  1
  O  O39  1  0.74009300  0.00605500  0.58342500  1
  O  O40  1  0.25990700  0.00605500  0.91657500  1
  O  O41  1  0.25990700  0.99394500  0.41657500  1
  O  O42  1  0.48891000  0.70298300  0.43880200  1
  O  O43  1  0.48891000  0.29701700  0.93880200  1
  O  O44  1  0.51109000  0.29701700  0.56119800  1
  O  O45  1  0.51109000  0.70298300  0.06119800  1
  O  O46  1  0.59938650  0.13183350  0.37040800  1
  O  O47  1  0.59938650  0.86816650  0.87040800  1
  O  O48  1  0.40061350  0.86816650  0.62959200  1
  O  O49  1  0.40061350  0.13183350  0.12959200  1
  O  O50  1  0.00000000  0.03454500  0.25000000  1
  O  O51  1  0.00000000  0.96545500  0.75000000  1
  O  O52  1  0.76244850  0.29566850  0.18098400  1
  O  O53  1  0.76244850  0.70433150  0.68098400  1
  O  O54  1  0.23755150  0.70433150  0.81901600  1
  O  O55  1  0.23755150  0.29566850  0.31901600  1
  O  O56  1  0.24009300  0.49394500  0.08342500  1
  O  O57  1  0.24009300  0.50605500  0.58342500  1
  O  O58  1  0.75990700  0.50605500  0.91657500  1
  O  O59  1  0.75990700  0.49394500  0.41657500  1
  O  O60  1  0.98891000  0.20298300  0.43880200  1
  O  O61  1  0.98891000  0.79701700  0.93880200  1
  O  O62  1  0.01109000  0.79701700  0.56119800  1
  O  O63  1  0.01109000  0.20298300  0.06119800  1
  O  O64  1  0.09938650  0.63183350  0.37040800  1
  O  O65  1  0.09938650  0.36816650  0.87040800  1
  O  O66  1  0.90061350  0.36816650  0.62959200  1
  O  O67  1  0.90061350  0.63183350  0.12959200  1
