# generated using pymatgen
data_V2Co(PO4)3
_symmetry_space_group_name_H-M   'P 1'
_cell_length_a   8.60086628
_cell_length_b   8.60086628
_cell_length_c   20.85153459
_cell_angle_alpha   90.00000000
_cell_angle_beta   90.00000000
_cell_angle_gamma   120.00000000
_symmetry_Int_Tables_number   1
_chemical_formula_structural   V2Co(PO4)3
_chemical_formula_sum   'V12 Co6 P18 O72'
_cell_volume   1335.83570004
_cell_formula_units_Z   6
loop_
 _symmetry_equiv_pos_site_id
 _symmetry_equiv_pos_as_xyz
  1  'x, y, z'
loop_
 _atom_site_type_symbol
 _atom_site_label
 _atom_site_symmetry_multiplicity
 _atom_site_fract_x
 _atom_site_fract_y
 _atom_site_fract_z
 _atom_site_occupancy
  V  V0  1  0.33333333  0.66666667  0.02373167  1
  V  V1  1  0.33333333  0.66666667  0.52373167  1
  V  V2  1  0.33333333  0.66666667  0.80960167  1
  V  V3  1  0.33333333  0.66666667  0.30960167  1
  V  V4  1  0.00000000  0.00000000  0.35706500  1
  V  V5  1  0.00000000  0.00000000  0.85706500  1
  V  V6  1  1.00000000  0.00000000  0.14293500  1
  V  V7  1  0.00000000  0.00000000  0.64293500  1
  V  V8  1  0.66666667  0.33333333  0.69039833  1
  V  V9  1  0.66666667  0.33333333  0.19039833  1
  V  V10  1  0.66666667  0.33333333  0.47626833  1
  V  V11  1  0.66666667  0.33333333  0.97626833  1
  Co  Co12  1  0.00000000  0.00000000  0.00000000  1
  Co  Co13  1  0.33333333  0.66666667  0.16666667  1
  Co  Co14  1  0.66666667  0.33333333  0.33333333  1
  Co  Co15  1  0.00000000  0.00000000  0.50000000  1
  Co  Co16  1  0.33333333  0.66666667  0.66666667  1
  Co  Co17  1  0.66666667  0.33333333  0.83333333  1
  P  P18  1  0.66666667  0.62593133  0.08333333  1
  P  P19  1  0.95926467  0.33333333  0.08333333  1
  P  P20  1  0.37406867  0.04073533  0.08333333  1
  P  P21  1  0.29259800  0.29259800  0.25000000  1
  P  P22  1  0.70740200  0.00000000  0.25000000  1
  P  P23  1  0.00000000  0.70740200  0.25000000  1
  P  P24  1  0.33333333  0.95926467  0.41666667  1
  P  P25  1  0.62593133  0.66666667  0.41666667  1
  P  P26  1  0.04073533  0.37406867  0.41666667  1
  P  P27  1  0.95926467  0.62593133  0.58333333  1
  P  P28  1  0.37406867  0.33333333  0.58333333  1
  P  P29  1  0.66666667  0.04073533  0.58333333  1
  P  P30  1  0.00000000  0.29259800  0.75000000  1
  P  P31  1  0.29259800  0.00000000  0.75000000  1
  P  P32  1  0.70740200  0.70740200  0.75000000  1
  P  P33  1  0.62593133  0.95926467  0.91666667  1
  P  P34  1  0.04073533  0.66666667  0.91666667  1
  P  P35  1  0.33333333  0.37406867  0.91666667  1
  O  O36  1  0.52719967  0.66635633  0.35561133  1
  O  O37  1  0.13915667  0.47280033  0.35561133  1
  O  O38  1  0.33364367  0.86084333  0.35561133  1
  O  O39  1  0.83592133  0.81622667  0.07734067  1
  O  O40  1  0.66635633  0.52719967  0.14438867  1
  O  O41  1  0.49741200  0.64697200  0.08932600  1
  O  O42  1  0.98030533  0.16407867  0.07734067  1
  O  O43  1  0.14956000  0.50258800  0.08932600  1
  O  O44  1  0.19386633  0.19417667  0.18894467  1
  O  O45  1  0.35302800  0.85044000  0.08932600  1
  O  O46  1  0.48289333  0.31363867  0.25599267  1
  O  O47  1  0.80582333  0.99968967  0.18894467  1
  O  O48  1  0.86084333  0.33364367  0.14438867  1
  O  O49  1  0.18377333  0.01969467  0.07734067  1
  O  O50  1  0.31363867  0.48289333  0.24400733  1
  O  O51  1  0.47280033  0.13915667  0.14438867  1
  O  O52  1  0.51710667  0.83074533  0.24400733  1
  O  O53  1  0.68636133  0.16925467  0.25599267  1
  O  O54  1  0.16925467  0.68636133  0.24400733  1
  O  O55  1  0.00031033  0.80613367  0.18894467  1
  O  O56  1  0.83074533  0.51710667  0.25599267  1
  O  O57  1  0.33302300  0.47249000  0.97772200  1
  O  O58  1  0.52751000  0.86053300  0.97772200  1
  O  O59  1  0.13946700  0.66697700  0.97772200  1
  O  O60  1  0.19386633  0.99968967  0.68894467  1
  O  O61  1  0.80582333  0.80613367  0.68894467  1
  O  O62  1  0.00031033  0.19417667  0.68894467  1
  O  O63  1  0.50258800  0.14956000  0.41067400  1
  O  O64  1  0.33302300  0.86053300  0.47772200  1
  O  O65  1  0.16407867  0.98030533  0.42265933  1
  O  O66  1  0.64697200  0.49741200  0.41067400  1
  O  O67  1  0.81622667  0.83592133  0.42265933  1
  O  O68  1  0.86053300  0.52751000  0.52227800  1
  O  O69  1  0.01969467  0.18377333  0.42265933  1
  O  O70  1  0.14956000  0.64697200  0.58932600  1
  O  O71  1  0.47249000  0.33302300  0.52227800  1
  O  O72  1  0.52751000  0.66697700  0.47772200  1
  O  O73  1  0.85044000  0.35302800  0.41067400  1
  O  O74  1  0.98030533  0.81622667  0.57734067  1
  O  O75  1  0.13946700  0.47249000  0.47772200  1
  O  O76  1  0.18377333  0.16407867  0.57734067  1
  O  O77  1  0.35302800  0.50258800  0.58932600  1
  O  O78  1  0.83592133  0.01969467  0.57734067  1
  O  O79  1  0.66697700  0.13946700  0.52227800  1
  O  O80  1  0.49741200  0.85044000  0.58932600  1
  O  O81  1  0.99968967  0.80582333  0.31105533  1
  O  O82  1  0.19417667  0.19386633  0.31105533  1
  O  O83  1  0.80613367  0.00031033  0.31105533  1
  O  O84  1  0.86053300  0.33302300  0.02227800  1
  O  O85  1  0.47249000  0.13946700  0.02227800  1
  O  O86  1  0.66697700  0.52751000  0.02227800  1
  O  O87  1  0.16925467  0.48289333  0.74400733  1
  O  O88  1  0.99968967  0.19386633  0.81105533  1
  O  O89  1  0.83074533  0.31363867  0.75599267  1
  O  O90  1  0.31363867  0.83074533  0.74400733  1
  O  O91  1  0.48289333  0.16925467  0.75599267  1
  O  O92  1  0.52719967  0.86084333  0.85561133  1
  O  O93  1  0.68636133  0.51710667  0.75599267  1
  O  O94  1  0.81622667  0.98030533  0.92265933  1
  O  O95  1  0.13915667  0.66635633  0.85561133  1
  O  O96  1  0.19417667  0.00031033  0.81105533  1
  O  O97  1  0.51710667  0.68636133  0.74400733  1
  O  O98  1  0.64697200  0.14956000  0.91067400  1
  O  O99  1  0.80613367  0.80582333  0.81105533  1
  O  O100  1  0.85044000  0.49741200  0.91067400  1
  O  O101  1  0.01969467  0.83592133  0.92265933  1
  O  O102  1  0.50258800  0.35302800  0.91067400  1
  O  O103  1  0.33364367  0.47280033  0.85561133  1
  O  O104  1  0.16407867  0.18377333  0.92265933  1
  O  O105  1  0.66635633  0.13915667  0.64438867  1
  O  O106  1  0.86084333  0.52719967  0.64438867  1
  O  O107  1  0.47280033  0.33364367  0.64438867  1
