# generated using pymatgen
data_Li4Fe2Cu3Sb3O16
_symmetry_space_group_name_H-M   'P 1'
_cell_length_a   10.70349400
_cell_length_b   6.03979000
_cell_length_c   9.70462869
_cell_angle_alpha   90.00000000
_cell_angle_beta   91.92849843
_cell_angle_gamma   90.00000000
_symmetry_Int_Tables_number   1
_chemical_formula_structural   Li4Fe2Cu3Sb3O16
_chemical_formula_sum   'Li8 Fe4 Cu6 Sb6 O32'
_cell_volume   627.01838998
_cell_formula_units_Z   2
loop_
 _symmetry_equiv_pos_site_id
 _symmetry_equiv_pos_as_xyz
  1  'x, y, z'
loop_
 _atom_site_type_symbol
 _atom_site_label
 _atom_site_symmetry_multiplicity
 _atom_site_fract_x
 _atom_site_fract_y
 _atom_site_fract_z
 _atom_site_occupancy
  Li  Li0  1  0.67119100  0.00000000  0.10133200  1
  Li  Li1  1  0.50906200  0.50000000  0.99353100  1
  Li  Li2  1  0.52029200  0.50000000  0.51467900  1
  Li  Li3  1  0.83702800  0.50000000  0.61647800  1
  Li  Li4  1  0.17119100  0.50000000  0.10133200  1
  Li  Li5  1  0.00906200  0.00000000  0.99353100  1
  Li  Li6  1  0.02029200  0.00000000  0.51467900  1
  Li  Li7  1  0.33702800  0.00000000  0.61647800  1
  Fe  Fe8  1  0.64902600  0.00000000  0.52350000  1
  Fe  Fe9  1  0.82193800  0.50000000  0.99496800  1
  Fe  Fe10  1  0.14902600  0.50000000  0.52350000  1
  Fe  Fe11  1  0.32193800  0.00000000  0.99496800  1
  Cu  Cu12  1  0.58324200  0.75373500  0.78860500  1
  Cu  Cu13  1  0.58324200  0.24626500  0.78860500  1
  Cu  Cu14  1  0.66968500  0.50000000  0.28237400  1
  Cu  Cu15  1  0.08324200  0.25373500  0.78860500  1
  Cu  Cu16  1  0.08324200  0.74626500  0.78860500  1
  Cu  Cu17  1  0.16968500  0.00000000  0.28237400  1
  Sb  Sb18  1  0.82701400  0.00000000  0.78342600  1
  Sb  Sb19  1  0.91575350  0.25380050  0.28552300  1
  Sb  Sb20  1  0.91575350  0.74619950  0.28552300  1
  Sb  Sb21  1  0.32701400  0.50000000  0.78342600  1
  Sb  Sb22  1  0.41575350  0.75380050  0.28552300  1
  Sb  Sb23  1  0.41575350  0.24619950  0.28552300  1
  O  O24  1  0.57717450  0.74418150  0.39768500  1
  O  O25  1  0.52042700  0.00000000  0.66104300  1
  O  O26  1  0.66868500  0.00000000  0.89174500  1
  O  O27  1  0.99578500  0.00000000  0.69815800  1
  O  O28  1  0.98526300  0.00000000  0.17751300  1
  O  O29  1  0.57717450  0.25581850  0.39768500  1
  O  O30  1  0.74746350  0.78123850  0.64995400  1
  O  O31  1  0.74746350  0.21876150  0.64995400  1
  O  O32  1  0.66328800  0.50000000  0.90145500  1
  O  O33  1  0.84690400  0.00000000  0.39982900  1
  O  O34  1  0.76234850  0.27793650  0.16451800  1
  O  O35  1  0.76234850  0.72206350  0.16451800  1
  O  O36  1  0.85197100  0.50000000  0.40476400  1
  O  O37  1  0.90517650  0.24099750  0.90560400  1
  O  O38  1  0.98485900  0.50000000  0.16368000  1
  O  O39  1  0.90517650  0.75900250  0.90560400  1
  O  O40  1  0.07717450  0.24418150  0.39768500  1
  O  O41  1  0.02042700  0.50000000  0.66104300  1
  O  O42  1  0.16868500  0.50000000  0.89174500  1
  O  O43  1  0.49578500  0.50000000  0.69815800  1
  O  O44  1  0.48526300  0.50000000  0.17751300  1
  O  O45  1  0.07717450  0.75581850  0.39768500  1
  O  O46  1  0.24746350  0.28123850  0.64995400  1
  O  O47  1  0.24746350  0.71876150  0.64995400  1
  O  O48  1  0.16328800  0.00000000  0.90145500  1
  O  O49  1  0.34690400  0.50000000  0.39982900  1
  O  O50  1  0.26234850  0.77793650  0.16451800  1
  O  O51  1  0.26234850  0.22206350  0.16451800  1
  O  O52  1  0.35197100  0.00000000  0.40476400  1
  O  O53  1  0.40517650  0.74099750  0.90560400  1
  O  O54  1  0.48485900  0.00000000  0.16368000  1
  O  O55  1  0.40517650  0.25900250  0.90560400  1
