# generated using pymatgen
data_RbFeO2
_symmetry_space_group_name_H-M   'P 1'
_cell_length_a   7.86416003
_cell_length_b   10.02118100
_cell_length_c   5.23720155
_cell_angle_alpha   90.00000000
_cell_angle_beta   123.42352504
_cell_angle_gamma   90.00000000
_symmetry_Int_Tables_number   1
_chemical_formula_structural   RbFeO2
_chemical_formula_sum   'Rb4 Fe4 O8'
_cell_volume   344.47701264
_cell_formula_units_Z   4
loop_
 _symmetry_equiv_pos_site_id
 _symmetry_equiv_pos_as_xyz
  1  'x, y, z'
loop_
 _atom_site_type_symbol
 _atom_site_label
 _atom_site_symmetry_multiplicity
 _atom_site_fract_x
 _atom_site_fract_y
 _atom_site_fract_z
 _atom_site_occupancy
  Rb  Rb0  1  0.50000000  0.15273800  0.75000000  1
  Rb  Rb1  1  0.50000000  0.84726200  0.25000000  1
  Rb  Rb2  1  0.00000000  0.65273800  0.75000000  1
  Rb  Rb3  1  0.00000000  0.34726200  0.25000000  1
  Fe  Fe4  1  0.50000000  0.51486400  0.75000000  1
  Fe  Fe5  1  0.50000000  0.48513600  0.25000000  1
  Fe  Fe6  1  0.00000000  0.01486400  0.75000000  1
  Fe  Fe7  1  0.00000000  0.98513600  0.25000000  1
  O  O8  1  0.84500200  0.90561850  0.85349250  1
  O  O9  1  0.84500200  0.09438150  0.35349250  1
  O  O10  1  0.15499800  0.90561850  0.64650750  1
  O  O11  1  0.15499800  0.09438150  0.14650750  1
  O  O12  1  0.34500200  0.40561850  0.85349250  1
  O  O13  1  0.34500200  0.59438150  0.35349250  1
  O  O14  1  0.65499800  0.40561850  0.64650750  1
  O  O15  1  0.65499800  0.59438150  0.14650750  1
