# generated using pymatgen
data_LiMnOF2
_symmetry_space_group_name_H-M   'P 1'
_cell_length_a   5.39000900
_cell_length_b   5.55061700
_cell_length_c   7.09321400
_cell_angle_alpha   90.00000000
_cell_angle_beta   90.00000000
_cell_angle_gamma   90.00000000
_symmetry_Int_Tables_number   1
_chemical_formula_structural   LiMnOF2
_chemical_formula_sum   'Li4 Mn4 O4 F8'
_cell_volume   212.21389395
_cell_formula_units_Z   4
loop_
 _symmetry_equiv_pos_site_id
 _symmetry_equiv_pos_as_xyz
  1  'x, y, z'
loop_
 _atom_site_type_symbol
 _atom_site_label
 _atom_site_symmetry_multiplicity
 _atom_site_fract_x
 _atom_site_fract_y
 _atom_site_fract_z
 _atom_site_occupancy
  Li  Li0  1  0.03989100  0.05155500  0.25000000  1
  Li  Li1  1  0.46010900  0.55155500  0.75000000  1
  Li  Li2  1  0.53989100  0.44844500  0.25000000  1
  Li  Li3  1  0.96010900  0.94844500  0.75000000  1
  Mn  Mn4  1  0.00000000  0.50000000  0.00000000  1
  Mn  Mn5  1  0.00000000  0.50000000  0.50000000  1
  Mn  Mn6  1  0.50000000  0.00000000  0.00000000  1
  Mn  Mn7  1  0.50000000  0.00000000  0.50000000  1
  O  O8  1  0.06812800  0.60109800  0.75000000  1
  O  O9  1  0.43187200  0.10109800  0.25000000  1
  O  O10  1  0.56812800  0.89890200  0.75000000  1
  O  O11  1  0.93187200  0.39890200  0.25000000  1
  F  F12  1  0.17416900  0.14617300  0.56225400  1
  F  F13  1  0.17416900  0.14617300  0.93774600  1
  F  F14  1  0.32583100  0.64617300  0.06225400  1
  F  F15  1  0.32583100  0.64617300  0.43774600  1
  F  F16  1  0.67416900  0.35382700  0.93774600  1
  F  F17  1  0.67416900  0.35382700  0.56225400  1
  F  F18  1  0.82583100  0.85382700  0.06225400  1
  F  F19  1  0.82583100  0.85382700  0.43774600  1
