# generated using pymatgen
data_LiCrPO4
_symmetry_space_group_name_H-M   'P 1'
_cell_length_a   5.12072600
_cell_length_b   6.44572100
_cell_length_c   9.24874900
_cell_angle_alpha   90.00000000
_cell_angle_beta   90.00000000
_cell_angle_gamma   90.00000000
_symmetry_Int_Tables_number   1
_chemical_formula_structural   LiCrPO4
_chemical_formula_sum   'Li4 Cr4 P4 O16'
_cell_volume   305.27134133
_cell_formula_units_Z   4
loop_
 _symmetry_equiv_pos_site_id
 _symmetry_equiv_pos_as_xyz
  1  'x, y, z'
loop_
 _atom_site_type_symbol
 _atom_site_label
 _atom_site_symmetry_multiplicity
 _atom_site_fract_x
 _atom_site_fract_y
 _atom_site_fract_z
 _atom_site_occupancy
  Li  Li0  1  0.50000000  0.00000000  0.50000000  1
  Li  Li1  1  0.50000000  0.50000000  0.50000000  1
  Li  Li2  1  0.00000000  0.00000000  0.00000000  1
  Li  Li3  1  0.00000000  0.50000000  0.00000000  1
  Cr  Cr4  1  0.44970150  0.25000000  0.86193100  1
  Cr  Cr5  1  0.05029850  0.25000000  0.36193100  1
  Cr  Cr6  1  0.94970150  0.75000000  0.63806900  1
  Cr  Cr7  1  0.55029850  0.75000000  0.13806900  1
  P  P8  1  0.96339350  0.25000000  0.68838900  1
  P  P9  1  0.46339350  0.75000000  0.81161100  1
  P  P10  1  0.53660650  0.25000000  0.18838900  1
  P  P11  1  0.03660650  0.75000000  0.31161100  1
  O  O12  1  0.26365950  0.25000000  0.65957900  1
  O  O13  1  0.76365950  0.75000000  0.84042100  1
  O  O14  1  0.23634050  0.25000000  0.15957900  1
  O  O15  1  0.73634050  0.75000000  0.34042100  1
  O  O16  1  0.40286150  0.75000000  0.64644100  1
  O  O17  1  0.90286150  0.25000000  0.85355900  1
  O  O18  1  0.09713850  0.75000000  0.14644100  1
  O  O19  1  0.59713850  0.25000000  0.35355900  1
  O  O20  1  0.84037050  0.05683950  0.61420700  1
  O  O21  1  0.84037050  0.44316050  0.61420700  1
  O  O22  1  0.34037050  0.94316050  0.88579300  1
  O  O23  1  0.34037050  0.55683950  0.88579300  1
  O  O24  1  0.65962950  0.05683950  0.11420700  1
  O  O25  1  0.65962950  0.44316050  0.11420700  1
  O  O26  1  0.15962950  0.55683950  0.38579300  1
  O  O27  1  0.15962950  0.94316050  0.38579300  1
