# generated using pymatgen
data_NaV4O10
_symmetry_space_group_name_H-M   'P 1'
_cell_length_a   11.78124000
_cell_length_b   3.68001600
_cell_length_c   9.57330227
_cell_angle_alpha   90.00000000
_cell_angle_beta   101.10373887
_cell_angle_gamma   90.00000000
_symmetry_Int_Tables_number   1
_chemical_formula_structural   NaV4O10
_chemical_formula_sum   'Na2 V8 O20'
_cell_volume   407.28224039
_cell_formula_units_Z   2
loop_
 _symmetry_equiv_pos_site_id
 _symmetry_equiv_pos_as_xyz
  1  'x, y, z'
loop_
 _atom_site_type_symbol
 _atom_site_label
 _atom_site_symmetry_multiplicity
 _atom_site_fract_x
 _atom_site_fract_y
 _atom_site_fract_z
 _atom_site_occupancy
  Na  Na0  1  0.00000000  0.50000000  0.50000000  1
  Na  Na1  1  0.50000000  0.00000000  0.50000000  1
  V  V2  1  0.91139400  0.00000000  0.83753100  1
  V  V3  1  0.79689000  0.00000000  0.16797900  1
  V  V4  1  0.70311000  0.50000000  0.83202100  1
  V  V5  1  0.58860600  0.50000000  0.16246900  1
  V  V6  1  0.41139400  0.50000000  0.83753100  1
  V  V7  1  0.29689000  0.50000000  0.16797900  1
  V  V8  1  0.20311000  0.00000000  0.83202100  1
  V  V9  1  0.08860600  0.00000000  0.16246900  1
  O  O10  1  0.93503400  0.00000000  0.09593800  1
  O  O11  1  0.90633700  0.00000000  0.66562800  1
  O  O12  1  0.84976800  0.00000000  0.33833800  1
  O  O13  1  0.87617000  0.50000000  0.86214000  1
  O  O14  1  0.75841900  0.50000000  0.12288000  1
  O  O15  1  0.74158100  0.00000000  0.87712000  1
  O  O16  1  0.62383000  0.00000000  0.13786000  1
  O  O17  1  0.65023200  0.50000000  0.66166200  1
  O  O18  1  0.59366300  0.50000000  0.33437200  1
  O  O19  1  0.56496600  0.50000000  0.90406200  1
  O  O20  1  0.43503400  0.50000000  0.09593800  1
  O  O21  1  0.40633700  0.50000000  0.66562800  1
  O  O22  1  0.34976800  0.50000000  0.33833800  1
  O  O23  1  0.37617000  0.00000000  0.86214000  1
  O  O24  1  0.25841900  0.00000000  0.12288000  1
  O  O25  1  0.24158100  0.50000000  0.87712000  1
  O  O26  1  0.12383000  0.50000000  0.13786000  1
  O  O27  1  0.15023200  0.00000000  0.66166200  1
  O  O28  1  0.09366300  0.00000000  0.33437200  1
  O  O29  1  0.06496600  0.00000000  0.90406200  1
