# generated using pymatgen
data_Li2CrCSO7
_symmetry_space_group_name_H-M   'P 1'
_cell_length_a   5.13025709
_cell_length_b   6.44567800
_cell_length_c   8.98859677
_cell_angle_alpha   90.00000000
_cell_angle_beta   92.43778620
_cell_angle_gamma   90.00000000
_symmetry_Int_Tables_number   1
_chemical_formula_structural   Li2CrCSO7
_chemical_formula_sum   'Li4 Cr2 C2 S2 O14'
_cell_volume   296.96578678
_cell_formula_units_Z   2
loop_
 _symmetry_equiv_pos_site_id
 _symmetry_equiv_pos_as_xyz
  1  'x, y, z'
loop_
 _atom_site_type_symbol
 _atom_site_label
 _atom_site_symmetry_multiplicity
 _atom_site_fract_x
 _atom_site_fract_y
 _atom_site_fract_z
 _atom_site_occupancy
  Li  Li0  1  0.78318900  0.02538500  0.68065150  1
  Li  Li1  1  0.78318900  0.47461500  0.68065150  1
  Li  Li2  1  0.21681100  0.52538500  0.31934850  1
  Li  Li3  1  0.21681100  0.97461500  0.31934850  1
  Cr  Cr4  1  0.23758800  0.25000000  0.86055250  1
  Cr  Cr5  1  0.76241200  0.75000000  0.13944750  1
  C  C6  1  0.27743300  0.25000000  0.56203900  1
  C  C7  1  0.72256700  0.75000000  0.43796100  1
  S  S8  1  0.29325100  0.75000000  0.92384000  1
  S  S9  1  0.70674900  0.25000000  0.07616000  1
  O  O10  1  0.74904900  0.75000000  0.58021750  1
  O  O11  1  0.25095100  0.25000000  0.41978250  1
  O  O12  1  0.06748700  0.25000000  0.64397850  1
  O  O13  1  0.93251300  0.75000000  0.35602150  1
  O  O14  1  0.50193000  0.25000000  0.63380450  1
  O  O15  1  0.49807000  0.75000000  0.36619550  1
  O  O16  1  0.78580600  0.25000000  0.91886400  1
  O  O17  1  0.21419400  0.75000000  0.08113600  1
  O  O18  1  0.58642600  0.75000000  0.92433400  1
  O  O19  1  0.41357400  0.25000000  0.07566600  1
  O  O20  1  0.18867100  0.93345200  0.84106650  1
  O  O21  1  0.18867100  0.56654800  0.84106650  1
  O  O22  1  0.81132900  0.43345200  0.15893350  1
  O  O23  1  0.81132900  0.06654800  0.15893350  1
