# generated using pymatgen
data_Li2TiCo3(PO4)6
_symmetry_space_group_name_H-M   'P 1'
_cell_length_a   8.56079358
_cell_length_b   8.56079358
_cell_length_c   21.00356319
_cell_angle_alpha   90.00000000
_cell_angle_beta   90.00000000
_cell_angle_gamma   120.00000000
_symmetry_Int_Tables_number   1
_chemical_formula_structural   Li2TiCo3(PO4)6
_chemical_formula_sum   'Li6 Ti3 Co9 P18 O72'
_cell_volume   1333.06602606
_cell_formula_units_Z   3
loop_
 _symmetry_equiv_pos_site_id
 _symmetry_equiv_pos_as_xyz
  1  'x, y, z'
loop_
 _atom_site_type_symbol
 _atom_site_label
 _atom_site_symmetry_multiplicity
 _atom_site_fract_x
 _atom_site_fract_y
 _atom_site_fract_z
 _atom_site_occupancy
  Li  Li0  1  0.66666667  0.33333333  0.32436133  1
  Li  Li1  1  0.33333333  0.66666667  0.16413967  1
  Li  Li2  1  0.33333333  0.66666667  0.65769467  1
  Li  Li3  1  0.00000000  0.00000000  0.49747300  1
  Li  Li4  1  0.00000000  0.00000000  0.99102800  1
  Li  Li5  1  0.66666667  0.33333333  0.83080633  1
  Ti  Ti6  1  0.00000000  0.00000000  0.14171600  1
  Ti  Ti7  1  0.66666667  0.33333333  0.47504933  1
  Ti  Ti8  1  0.33333333  0.66666667  0.80838267  1
  Co  Co9  1  0.66666667  0.33333333  0.18806833  1
  Co  Co10  1  0.33333333  0.66666667  0.31000567  1
  Co  Co11  1  0.33333333  0.66666667  0.02410467  1
  Co  Co12  1  0.33333333  0.66666667  0.52140167  1
  Co  Co13  1  0.00000000  0.00000000  0.64333900  1
  Co  Co14  1  0.00000000  0.00000000  0.35743800  1
  Co  Co15  1  0.00000000  0.00000000  0.85473500  1
  Co  Co16  1  0.66666667  0.33333333  0.97667233  1
  Co  Co17  1  0.66666667  0.33333333  0.69077133  1
  P  P18  1  0.99832933  0.28727267  0.25133967  1
  P  P19  1  0.71272733  0.71105667  0.25133967  1
  P  P20  1  0.28894333  0.00167067  0.25133967  1
  P  P21  1  0.37759200  0.34010300  0.08266800  1
  P  P22  1  0.96251100  0.62240800  0.08266800  1
  P  P23  1  0.65989700  0.03748900  0.08266800  1
  P  P24  1  0.66499600  0.62060600  0.58467300  1
  P  P25  1  0.37939400  0.04439000  0.58467300  1
  P  P26  1  0.95561000  0.33500400  0.58467300  1
  P  P27  1  0.04425867  0.67343633  0.41600133  1
  P  P28  1  0.62917767  0.95574133  0.41600133  1
  P  P29  1  0.32656367  0.37082233  0.41600133  1
  P  P30  1  0.33166267  0.95393933  0.91800633  1
  P  P31  1  0.04606067  0.37772333  0.91800633  1
  P  P32  1  0.62227667  0.66833733  0.91800633  1
  P  P33  1  0.71092533  0.00676967  0.74933467  1
  P  P34  1  0.29584433  0.28907467  0.74933467  1
  P  P35  1  0.99323033  0.70415567  0.74933467  1
  O  O36  1  0.67183833  0.14475667  0.02237167  1
  O  O37  1  0.47291833  0.32816167  0.02237167  1
  O  O38  1  0.83194433  0.31270967  0.25378867  1
  O  O39  1  0.85524333  0.52708167  0.02237167  1
  O  O40  1  0.17021000  0.47575200  0.24753600  1
  O  O41  1  0.00066867  0.18626733  0.19090433  1
  O  O42  1  0.68729033  0.51923467  0.25378867  1
  O  O43  1  0.52424800  0.69445800  0.24753600  1
  O  O44  1  0.30554200  0.82979000  0.24753600  1
  O  O45  1  0.48051700  0.34981900  0.14351400  1
  O  O46  1  0.18628233  0.17186267  0.08145767  1
  O  O47  1  0.86930200  0.51948300  0.14351400  1
  O  O48  1  0.81373267  0.81440133  0.19090433  1
  O  O49  1  0.48076533  0.16805567  0.25378867  1
  O  O50  1  0.18559867  0.99933133  0.19090433  1
  O  O51  1  0.35876133  0.51207367  0.08501367  1
  O  O52  1  0.15331233  0.64123867  0.08501367  1
  O  O53  1  0.98558033  0.81371767  0.08145767  1
  O  O54  1  0.65018100  0.13069800  0.14351400  1
  O  O55  1  0.48792633  0.84668767  0.08501367  1
  O  O56  1  0.81789167  0.80183333  0.31283033  1
  O  O57  1  0.82813733  0.01441967  0.08145767  1
  O  O58  1  0.19816667  0.01605833  0.31283033  1
  O  O59  1  0.98394167  0.18210833  0.31283033  1
  O  O60  1  0.33850500  0.47809000  0.35570500  1
  O  O61  1  0.13958500  0.66149500  0.35570500  1
  O  O62  1  0.49861100  0.64604300  0.58712200  1
  O  O63  1  0.52191000  0.86041500  0.35570500  1
  O  O64  1  0.83687667  0.80908533  0.58086933  1
  O  O65  1  0.66733533  0.51960067  0.52423767  1
  O  O66  1  0.35395700  0.85256800  0.58712200  1
  O  O67  1  0.19091467  0.02779133  0.58086933  1
  O  O68  1  0.97220867  0.16312333  0.58086933  1
  O  O69  1  0.14718367  0.68315233  0.47684733  1
  O  O70  1  0.85294900  0.50519600  0.41479100  1
  O  O71  1  0.53596867  0.85281633  0.47684733  1
  O  O72  1  0.48039933  0.14773467  0.52423767  1
  O  O73  1  0.14743200  0.50138900  0.58712200  1
  O  O74  1  0.85226533  0.33266467  0.52423767  1
  O  O75  1  0.02542800  0.84540700  0.41834700  1
  O  O76  1  0.81997900  0.97457200  0.41834700  1
  O  O77  1  0.65224700  0.14705100  0.41479100  1
  O  O78  1  0.31684767  0.46403133  0.47684733  1
  O  O79  1  0.15459300  0.18002100  0.41834700  1
  O  O80  1  0.48455833  0.13516667  0.64616367  1
  O  O81  1  0.49480400  0.34775300  0.41479100  1
  O  O82  1  0.86483333  0.34939167  0.64616367  1
  O  O83  1  0.65060833  0.51544167  0.64616367  1
  O  O84  1  0.00517167  0.81142333  0.68903833  1
  O  O85  1  0.80625167  0.99482833  0.68903833  1
  O  O86  1  0.16527767  0.97937633  0.92045533  1
  O  O87  1  0.18857667  0.19374833  0.68903833  1
  O  O88  1  0.50354333  0.14241867  0.91420267  1
  O  O89  1  0.33400200  0.85293400  0.85757100  1
  O  O90  1  0.02062367  0.18590133  0.92045533  1
  O  O91  1  0.85758133  0.36112467  0.91420267  1
  O  O92  1  0.63887533  0.49645667  0.91420267  1
  O  O93  1  0.81385033  0.01648567  0.81018067  1
  O  O94  1  0.51961567  0.83852933  0.74812433  1
  O  O95  1  0.20263533  0.18614967  0.81018067  1
  O  O96  1  0.14706600  0.48106800  0.85757100  1
  O  O97  1  0.81409867  0.83472233  0.92045533  1
  O  O98  1  0.51893200  0.66599800  0.85757100  1
  O  O99  1  0.69209467  0.17874033  0.75168033  1
  O  O100  1  0.48664567  0.30790533  0.75168033  1
  O  O101  1  0.31891367  0.48038433  0.74812433  1
  O  O102  1  0.98351433  0.79736467  0.81018067  1
  O  O103  1  0.82125967  0.51335433  0.75168033  1
  O  O104  1  0.15122500  0.46850000  0.97949700  1
  O  O105  1  0.16147067  0.68108633  0.74812433  1
  O  O106  1  0.53150000  0.68272500  0.97949700  1
  O  O107  1  0.31727500  0.84877500  0.97949700  1
