# generated using pymatgen
data_Li2MnO2F
_symmetry_space_group_name_H-M   'P 1'
_cell_length_a   5.08946000
_cell_length_b   9.15118400
_cell_length_c   5.08226572
_cell_angle_alpha   90.00000000
_cell_angle_beta   105.65662433
_cell_angle_gamma   90.00000000
_symmetry_Int_Tables_number   1
_chemical_formula_structural   Li2MnO2F
_chemical_formula_sum   'Li8 Mn4 O8 F4'
_cell_volume   227.92181335
_cell_formula_units_Z   4
loop_
 _symmetry_equiv_pos_site_id
 _symmetry_equiv_pos_as_xyz
  1  'x, y, z'
loop_
 _atom_site_type_symbol
 _atom_site_label
 _atom_site_symmetry_multiplicity
 _atom_site_fract_x
 _atom_site_fract_y
 _atom_site_fract_z
 _atom_site_occupancy
  Li  Li0  1  0.50000000  0.00000000  0.50000000  1
  Li  Li1  1  0.00000000  0.00000000  0.00000000  1
  Li  Li2  1  0.50000000  0.67987000  0.50000000  1
  Li  Li3  1  0.00000000  0.82013000  0.50000000  1
  Li  Li4  1  0.00000000  0.50000000  0.50000000  1
  Li  Li5  1  0.50000000  0.50000000  0.00000000  1
  Li  Li6  1  0.00000000  0.17987000  0.50000000  1
  Li  Li7  1  0.50000000  0.32013000  0.50000000  1
  Mn  Mn8  1  0.50000000  0.81933100  0.00000000  1
  Mn  Mn9  1  0.00000000  0.68066900  0.00000000  1
  Mn  Mn10  1  0.00000000  0.31933100  0.00000000  1
  Mn  Mn11  1  0.50000000  0.18066900  0.00000000  1
  O  O12  1  0.26394200  0.82746400  0.23409500  1
  O  O13  1  0.73605800  0.82746400  0.76590500  1
  O  O14  1  0.23605800  0.67253600  0.76590500  1
  O  O15  1  0.76394200  0.67253600  0.23409500  1
  O  O16  1  0.76394200  0.32746400  0.23409500  1
  O  O17  1  0.23605800  0.32746400  0.76590500  1
  O  O18  1  0.73605800  0.17253600  0.76590500  1
  O  O19  1  0.26394200  0.17253600  0.23409500  1
  F  F20  1  0.74459200  0.00000000  0.24852600  1
  F  F21  1  0.25540800  0.00000000  0.75147400  1
  F  F22  1  0.24459200  0.50000000  0.24852600  1
  F  F23  1  0.75540800  0.50000000  0.75147400  1
