# generated using pymatgen
data_La7(FeO8)2
_symmetry_space_group_name_H-M   'P 1'
_cell_length_a   10.69978400
_cell_length_b   10.81736800
_cell_length_c   6.95285989
_cell_angle_alpha   90.00000000
_cell_angle_beta   112.70909680
_cell_angle_gamma   90.00000000
_symmetry_Int_Tables_number   1
_chemical_formula_structural   La7(FeO8)2
_chemical_formula_sum   'La14 Fe4 O32'
_cell_volume   742.36168569
_cell_formula_units_Z   2
loop_
 _symmetry_equiv_pos_site_id
 _symmetry_equiv_pos_as_xyz
  1  'x, y, z'
loop_
 _atom_site_type_symbol
 _atom_site_label
 _atom_site_symmetry_multiplicity
 _atom_site_fract_x
 _atom_site_fract_y
 _atom_site_fract_z
 _atom_site_occupancy
  La  La0  1  0.19562100  0.00000000  0.77539400  1
  La  La1  1  0.43001700  0.74865100  0.72192400  1
  La  La2  1  0.56807000  0.75020200  0.26830600  1
  La  La3  1  0.67715800  0.00000000  0.72167200  1
  La  La4  1  0.43001700  0.25134900  0.72192400  1
  La  La5  1  0.56807000  0.24979800  0.26830600  1
  La  La6  1  0.81991500  0.00000000  0.27476200  1
  La  La7  1  0.69562100  0.50000000  0.77539400  1
  La  La8  1  0.93001700  0.24865100  0.72192400  1
  La  La9  1  0.06807000  0.25020200  0.26830600  1
  La  La10  1  0.17715800  0.50000000  0.72167200  1
  La  La11  1  0.93001700  0.75134900  0.72192400  1
  La  La12  1  0.06807000  0.74979800  0.26830600  1
  La  La13  1  0.31991500  0.50000000  0.27476200  1
  Fe  Fe14  1  0.00171500  0.00000000  0.00611000  1
  Fe  Fe15  1  0.50172500  0.00000000  0.00771200  1
  Fe  Fe16  1  0.50171500  0.50000000  0.00611000  1
  Fe  Fe17  1  0.00172500  0.50000000  0.00771200  1
  O  O18  1  0.06429000  0.00000000  0.30573200  1
  O  O19  1  0.61331350  0.37659550  0.98781600  1
  O  O20  1  0.87398350  0.11887750  0.99045200  1
  O  O21  1  0.34521850  0.71300850  0.38007100  1
  O  O22  1  0.65403100  0.75893200  0.62122100  1
  O  O23  1  0.38230800  0.87649800  0.99598600  1
  O  O24  1  0.61331350  0.62340450  0.98781600  1
  O  O25  1  0.42659300  0.00000000  0.70382000  1
  O  O26  1  0.59419200  0.00000000  0.31930600  1
  O  O27  1  0.62335650  0.88083250  0.99721200  1
  O  O28  1  0.38230800  0.12350200  0.99598600  1
  O  O29  1  0.34521850  0.28699150  0.38007100  1
  O  O30  1  0.65403100  0.24106800  0.62122100  1
  O  O31  1  0.87398350  0.88112250  0.99045200  1
  O  O32  1  0.91919600  0.00000000  0.68351700  1
  O  O33  1  0.62335650  0.11916750  0.99721200  1
  O  O34  1  0.56429000  0.50000000  0.30573200  1
  O  O35  1  0.11331350  0.87659550  0.98781600  1
  O  O36  1  0.37398350  0.61887750  0.99045200  1
  O  O37  1  0.84521850  0.21300850  0.38007100  1
  O  O38  1  0.15403100  0.25893200  0.62122100  1
  O  O39  1  0.88230800  0.37649800  0.99598600  1
  O  O40  1  0.11331350  0.12340450  0.98781600  1
  O  O41  1  0.92659300  0.50000000  0.70382000  1
  O  O42  1  0.09419200  0.50000000  0.31930600  1
  O  O43  1  0.12335650  0.38083250  0.99721200  1
  O  O44  1  0.88230800  0.62350200  0.99598600  1
  O  O45  1  0.84521850  0.78699150  0.38007100  1
  O  O46  1  0.15403100  0.74106800  0.62122100  1
  O  O47  1  0.37398350  0.38112250  0.99045200  1
  O  O48  1  0.41919600  0.50000000  0.68351700  1
  O  O49  1  0.12335650  0.61916750  0.99721200  1
