# generated using pymatgen
data_Mn5Nb(PO4)6
_symmetry_space_group_name_H-M   'P 1'
_cell_length_a   8.71630009
_cell_length_b   8.71630009
_cell_length_c   21.38643711
_cell_angle_alpha   90.00000000
_cell_angle_beta   90.00000000
_cell_angle_gamma   120.00000000
_symmetry_Int_Tables_number   1
_chemical_formula_structural   Mn5Nb(PO4)6
_chemical_formula_sum   'Mn15 Nb3 P18 O72'
_cell_volume   1407.12739736
_cell_formula_units_Z   3
loop_
 _symmetry_equiv_pos_site_id
 _symmetry_equiv_pos_as_xyz
  1  'x, y, z'
loop_
 _atom_site_type_symbol
 _atom_site_label
 _atom_site_symmetry_multiplicity
 _atom_site_fract_x
 _atom_site_fract_y
 _atom_site_fract_z
 _atom_site_occupancy
  Mn  Mn0  1  0.66666667  0.33333333  0.32821633  1
  Mn  Mn1  1  0.33333333  0.66666667  0.31122767  1
  Mn  Mn2  1  0.33333333  0.66666667  0.16633667  1
  Mn  Mn3  1  0.66666667  0.33333333  0.18663033  1
  Mn  Mn4  1  0.33333333  0.66666667  0.02208467  1
  Mn  Mn5  1  0.33333333  0.66666667  0.66154967  1
  Mn  Mn6  1  0.00000000  0.00000000  0.64456100  1
  Mn  Mn7  1  0.00000000  0.00000000  0.49967000  1
  Mn  Mn8  1  0.33333333  0.66666667  0.51996367  1
  Mn  Mn9  1  0.00000000  0.00000000  0.35541800  1
  Mn  Mn10  1  0.00000000  0.00000000  0.99488300  1
  Mn  Mn11  1  0.66666667  0.33333333  0.97789433  1
  Mn  Mn12  1  0.66666667  0.33333333  0.83300333  1
  Mn  Mn13  1  0.00000000  0.00000000  0.85329700  1
  Mn  Mn14  1  0.66666667  0.33333333  0.68875133  1
  Nb  Nb15  1  0.00000000  0.00000000  0.14396200  1
  Nb  Nb16  1  0.66666667  0.33333333  0.47729533  1
  Nb  Nb17  1  0.33333333  0.66666667  0.81062867  1
  P  P18  1  0.29718000  0.99969900  0.25186100  1
  P  P19  1  0.00030100  0.29748100  0.25186100  1
  P  P20  1  0.70251900  0.70282000  0.25186100  1
  P  P21  1  0.96069167  0.62190633  0.08265233  1
  P  P22  1  0.66121467  0.03930833  0.08265233  1
  P  P23  1  0.37809367  0.33878533  0.08265233  1
  P  P24  1  0.96384667  0.33303233  0.58519433  1
  P  P25  1  0.66696767  0.63081433  0.58519433  1
  P  P26  1  0.36918567  0.03615333  0.58519433  1
  P  P27  1  0.62735833  0.95523967  0.41598567  1
  P  P28  1  0.32788133  0.37264167  0.41598567  1
  P  P29  1  0.04476033  0.67211867  0.41598567  1
  P  P30  1  0.63051333  0.66636567  0.91852767  1
  P  P31  1  0.33363433  0.96414767  0.91852767  1
  P  P32  1  0.03585233  0.36948667  0.91852767  1
  P  P33  1  0.29402500  0.28857300  0.74931900  1
  P  P34  1  0.99454800  0.70597500  0.74931900  1
  P  P35  1  0.71142700  0.00545200  0.74931900  1
  O  O36  1  0.99891067  0.19912133  0.31068133  1
  O  O37  1  0.80087867  0.79978933  0.31068133  1
  O  O38  1  0.20021067  0.00108933  0.31068133  1
  O  O39  1  0.48297867  0.16934933  0.25437833  1
  O  O40  1  0.19179233  0.00648067  0.19266167  1
  O  O41  1  0.31194833  0.83309667  0.24186267  1
  O  O42  1  0.83065067  0.31362933  0.25437833  1
  O  O43  1  0.16690333  0.47885167  0.24186267  1
  O  O44  1  0.86715400  0.52927800  0.14334700  1
  O  O45  1  0.52114833  0.68805167  0.24186267  1
  O  O46  1  0.98513367  0.81652333  0.08032333  1
  O  O47  1  0.66212400  0.13284600  0.14334700  1
  O  O48  1  0.99351933  0.18531167  0.19266167  1
  O  O49  1  0.68637067  0.51702133  0.25437833  1
  O  O50  1  0.15101400  0.64924400  0.08884300  1
  O  O51  1  0.81468833  0.80820767  0.19266167  1
  O  O52  1  0.49823000  0.84898600  0.08884300  1
  O  O53  1  0.83138967  0.01486633  0.08032333  1
  O  O54  1  0.35075600  0.50177000  0.08884300  1
  O  O55  1  0.47072200  0.33787600  0.14334700  1
  O  O56  1  0.18347667  0.16861033  0.08032333  1
  O  O57  1  0.46428567  0.33091133  0.02278833  1
  O  O58  1  0.86662567  0.53571433  0.02278833  1
  O  O59  1  0.66908867  0.13337433  0.02278833  1
  O  O60  1  0.66557733  0.53245467  0.64401467  1
  O  O61  1  0.46754533  0.13312267  0.64401467  1
  O  O62  1  0.86687733  0.33442267  0.64401467  1
  O  O63  1  0.14964533  0.50268267  0.58771167  1
  O  O64  1  0.85845900  0.33981400  0.52599500  1
  O  O65  1  0.97861500  0.16643000  0.57519600  1
  O  O66  1  0.49731733  0.64696267  0.58771167  1
  O  O67  1  0.83357000  0.81218500  0.57519600  1
  O  O68  1  0.53382067  0.86261133  0.47668033  1
  O  O69  1  0.18781500  0.02138500  0.57519600  1
  O  O70  1  0.65180033  0.14985667  0.41365667  1
  O  O71  1  0.32879067  0.46617933  0.47668033  1
  O  O72  1  0.66018600  0.51864500  0.52599500  1
  O  O73  1  0.35303733  0.85035467  0.58771167  1
  O  O74  1  0.81768067  0.98257733  0.42217633  1
  O  O75  1  0.48135500  0.14154100  0.52599500  1
  O  O76  1  0.16489667  0.18231933  0.42217633  1
  O  O77  1  0.49805633  0.34819967  0.41365667  1
  O  O78  1  0.01742267  0.83510333  0.42217633  1
  O  O79  1  0.13738867  0.67120933  0.47668033  1
  O  O80  1  0.85014333  0.50194367  0.41365667  1
  O  O81  1  0.13095233  0.66424467  0.35612167  1
  O  O82  1  0.53329233  0.86904767  0.35612167  1
  O  O83  1  0.33575533  0.46670767  0.35612167  1
  O  O84  1  0.33224400  0.86578800  0.97734800  1
  O  O85  1  0.13421200  0.46645600  0.97734800  1
  O  O86  1  0.53354400  0.66775600  0.97734800  1
  O  O87  1  0.81631200  0.83601600  0.92104500  1
  O  O88  1  0.52512567  0.67314733  0.85932833  1
  O  O89  1  0.64528167  0.49976333  0.90852933  1
  O  O90  1  0.16398400  0.98029600  0.92104500  1
  O  O91  1  0.50023667  0.14551833  0.90852933  1
  O  O92  1  0.20048733  0.19594467  0.81001367  1
  O  O93  1  0.85448167  0.35471833  0.90852933  1
  O  O94  1  0.31846700  0.48319000  0.74699000  1
  O  O95  1  0.99545733  0.79951267  0.81001367  1
  O  O96  1  0.32685267  0.85197833  0.85932833  1
  O  O97  1  0.01970400  0.18368800  0.92104500  1
  O  O98  1  0.48434733  0.31591067  0.75550967  1
  O  O99  1  0.14802167  0.47487433  0.85932833  1
  O  O100  1  0.83156333  0.51565267  0.75550967  1
  O  O101  1  0.16472300  0.68153300  0.74699000  1
  O  O102  1  0.68408933  0.16843667  0.75550967  1
  O  O103  1  0.80405533  0.00454267  0.81001367  1
  O  O104  1  0.51681000  0.83527700  0.74699000  1
  O  O105  1  0.79761900  0.99757800  0.68945500  1
  O  O106  1  0.19995900  0.20238100  0.68945500  1
  O  O107  1  0.00242200  0.80004100  0.68945500  1
