# generated using pymatgen
data_Li2Co3TeO8
_symmetry_space_group_name_H-M   'P 1'
_cell_length_a   5.82163609
_cell_length_b   5.82163609
_cell_length_c   14.59716218
_cell_angle_alpha   90.00000000
_cell_angle_beta   90.00000000
_cell_angle_gamma   120.00000000
_symmetry_Int_Tables_number   1
_chemical_formula_structural   Li2Co3TeO8
_chemical_formula_sum   'Li6 Co9 Te3 O24'
_cell_volume   428.43917457
_cell_formula_units_Z   3
loop_
 _symmetry_equiv_pos_site_id
 _symmetry_equiv_pos_as_xyz
  1  'x, y, z'
loop_
 _atom_site_type_symbol
 _atom_site_label
 _atom_site_symmetry_multiplicity
 _atom_site_fract_x
 _atom_site_fract_y
 _atom_site_fract_z
 _atom_site_occupancy
  Li  Li0  1  0.00000000  0.00000000  0.13281600  1
  Li  Li1  1  0.66666667  0.33333333  0.20051733  1
  Li  Li2  1  0.66666667  0.33333333  0.46614933  1
  Li  Li3  1  0.33333333  0.66666667  0.53385067  1
  Li  Li4  1  0.33333333  0.66666667  0.79948267  1
  Li  Li5  1  0.00000000  0.00000000  0.86718400  1
  Co  Co6  1  0.50000000  0.50000000  0.00000000  1
  Co  Co7  1  0.00000000  0.50000000  0.00000000  1
  Co  Co8  1  0.50000000  0.00000000  0.00000000  1
  Co  Co9  1  0.16666667  0.83333333  0.33333333  1
  Co  Co10  1  0.66666667  0.83333333  0.33333333  1
  Co  Co11  1  0.16666667  0.33333333  0.33333333  1
  Co  Co12  1  0.83333333  0.16666667  0.66666667  1
  Co  Co13  1  0.33333333  0.16666667  0.66666667  1
  Co  Co14  1  0.83333333  0.66666667  0.66666667  1
  Te  Te15  1  0.33333333  0.66666667  0.16666667  1
  Te  Te16  1  1.00000000  1.00000000  0.50000000  1
  Te  Te17  1  0.66666667  0.33333333  0.83333333  1
  O  O18  1  0.00000000  0.00000000  0.26855400  1
  O  O19  1  0.18190633  0.36381267  0.08146967  1
  O  O20  1  0.63618733  0.81809367  0.08146967  1
  O  O21  1  0.18190633  0.81809367  0.08146967  1
  O  O22  1  0.48476033  0.51523967  0.25186367  1
  O  O23  1  0.03047933  0.51523967  0.25186367  1
  O  O24  1  0.48476033  0.96952067  0.25186367  1
  O  O25  1  0.66666667  0.33333333  0.06477933  1
  O  O26  1  0.66666667  0.33333333  0.60188733  1
  O  O27  1  0.84857300  0.69714600  0.41480300  1
  O  O28  1  0.30285400  0.15142700  0.41480300  1
  O  O29  1  0.84857300  0.15142700  0.41480300  1
  O  O30  1  0.15142700  0.84857300  0.58519700  1
  O  O31  1  0.69714600  0.84857300  0.58519700  1
  O  O32  1  0.15142700  0.30285400  0.58519700  1
  O  O33  1  0.33333333  0.66666667  0.39811267  1
  O  O34  1  0.33333333  0.66666667  0.93522067  1
  O  O35  1  0.51523967  0.03047933  0.74813633  1
  O  O36  1  0.96952067  0.48476033  0.74813633  1
  O  O37  1  0.51523967  0.48476033  0.74813633  1
  O  O38  1  0.81809367  0.18190633  0.91853033  1
  O  O39  1  0.36381267  0.18190633  0.91853033  1
  O  O40  1  0.81809367  0.63618733  0.91853033  1
  O  O41  1  0.00000000  0.00000000  0.73144600  1
