# generated using pymatgen
data_Co3NiO8
_symmetry_space_group_name_H-M   'P 1'
_cell_length_a   5.65130987
_cell_length_b   5.65130987
_cell_length_c   14.46281773
_cell_angle_alpha   90.00000000
_cell_angle_beta   90.00000000
_cell_angle_gamma   120.00000000
_symmetry_Int_Tables_number   1
_chemical_formula_structural   Co3NiO8
_chemical_formula_sum   'Co9 Ni3 O24'
_cell_volume   400.02007480
_cell_formula_units_Z   3
loop_
 _symmetry_equiv_pos_site_id
 _symmetry_equiv_pos_as_xyz
  1  'x, y, z'
loop_
 _atom_site_type_symbol
 _atom_site_label
 _atom_site_symmetry_multiplicity
 _atom_site_fract_x
 _atom_site_fract_y
 _atom_site_fract_z
 _atom_site_occupancy
  Co  Co0  1  0.83333333  0.16666667  0.66666667  1
  Co  Co1  1  0.33333333  0.16666667  0.66666667  1
  Co  Co2  1  0.83333333  0.66666667  0.66666667  1
  Co  Co3  1  0.50000000  0.50000000  0.00000000  1
  Co  Co4  1  0.00000000  0.50000000  0.00000000  1
  Co  Co5  1  0.50000000  0.00000000  0.00000000  1
  Co  Co6  1  0.16666667  0.83333333  0.33333333  1
  Co  Co7  1  0.66666667  0.83333333  0.33333333  1
  Co  Co8  1  0.16666667  0.33333333  0.33333333  1
  Ni  Ni9  1  0.00000000  0.00000000  0.00000000  1
  Ni  Ni10  1  0.66666667  0.33333333  0.33333333  1
  Ni  Ni11  1  0.33333333  0.66666667  0.66666667  1
  O  O12  1  0.33333333  0.66666667  0.93533333  1
  O  O13  1  0.00000000  0.00000000  0.73133333  1
  O  O14  1  0.83455425  0.66910850  0.93484300  1
  O  O15  1  0.33089150  0.16544575  0.93484300  1
  O  O16  1  0.83455425  0.16544575  0.93484300  1
  O  O17  1  0.49877908  0.50122092  0.73182367  1
  O  O18  1  0.00244183  0.50122092  0.73182367  1
  O  O19  1  0.49877908  0.99755817  0.73182367  1
  O  O20  1  0.00000000  0.00000000  0.26866667  1
  O  O21  1  0.66666667  0.33333333  0.06466667  1
  O  O22  1  0.50122092  0.00244183  0.26817633  1
  O  O23  1  0.99755817  0.49877908  0.26817633  1
  O  O24  1  0.50122092  0.49877908  0.26817633  1
  O  O25  1  0.16544575  0.83455425  0.06515700  1
  O  O26  1  0.66910850  0.83455425  0.06515700  1
  O  O27  1  0.16544575  0.33089150  0.06515700  1
  O  O28  1  0.66666667  0.33333333  0.60200000  1
  O  O29  1  0.33333333  0.66666667  0.39800000  1
  O  O30  1  0.16788758  0.33577517  0.60150967  1
  O  O31  1  0.66422483  0.83211242  0.60150967  1
  O  O32  1  0.16788758  0.83211242  0.60150967  1
  O  O33  1  0.83211242  0.16788758  0.39849033  1
  O  O34  1  0.33577517  0.16788758  0.39849033  1
  O  O35  1  0.83211242  0.66422483  0.39849033  1
