# generated using pymatgen
data_Li3Cr3CoO8
_symmetry_space_group_name_H-M   'P 1'
_cell_length_a   5.88822075
_cell_length_b   5.88822075
_cell_length_c   14.56490305
_cell_angle_alpha   90.00000000
_cell_angle_beta   90.00000000
_cell_angle_gamma   120.00000000
_symmetry_Int_Tables_number   1
_chemical_formula_structural   Li3Cr3CoO8
_chemical_formula_sum   'Li9 Cr9 Co3 O24'
_cell_volume   437.32710691
_cell_formula_units_Z   3
loop_
 _symmetry_equiv_pos_site_id
 _symmetry_equiv_pos_as_xyz
  1  'x, y, z'
loop_
 _atom_site_type_symbol
 _atom_site_label
 _atom_site_symmetry_multiplicity
 _atom_site_fract_x
 _atom_site_fract_y
 _atom_site_fract_z
 _atom_site_occupancy
  Li  Li0  1  0.16666667  0.33333333  0.83333333  1
  Li  Li1  1  0.16666667  0.83333333  0.83333333  1
  Li  Li2  1  0.66666667  0.83333333  0.83333333  1
  Li  Li3  1  0.83333333  0.66666667  0.16666667  1
  Li  Li4  1  0.83333333  0.16666667  0.16666667  1
  Li  Li5  1  0.33333333  0.16666667  0.16666667  1
  Li  Li6  1  0.50000000  0.00000000  0.50000000  1
  Li  Li7  1  0.50000000  0.50000000  0.50000000  1
  Li  Li8  1  0.00000000  0.50000000  0.50000000  1
  Cr  Cr9  1  0.33333333  0.16666667  0.66666667  1
  Cr  Cr10  1  0.50000000  0.00000000  0.00000000  1
  Cr  Cr11  1  0.83333333  0.16666667  0.66666667  1
  Cr  Cr12  1  0.00000000  0.50000000  0.00000000  1
  Cr  Cr13  1  0.16666667  0.33333333  0.33333333  1
  Cr  Cr14  1  0.50000000  0.50000000  0.00000000  1
  Cr  Cr15  1  0.66666667  0.83333333  0.33333333  1
  Cr  Cr16  1  0.83333333  0.66666667  0.66666667  1
  Cr  Cr17  1  0.16666667  0.83333333  0.33333333  1
  Co  Co18  1  0.00000000  0.00000000  0.00000000  1
  Co  Co19  1  0.66666667  0.33333333  0.33333333  1
  Co  Co20  1  0.33333333  0.66666667  0.66666667  1
  O  O21  1  0.33333333  0.66666667  0.92529483  1
  O  O22  1  0.00000000  0.00000000  0.74137183  1
  O  O23  1  0.84275467  0.15724533  0.92915983  1
  O  O24  1  0.84275467  0.68550933  0.92915983  1
  O  O25  1  0.31449067  0.15724533  0.92915983  1
  O  O26  1  0.01884267  0.50942133  0.73750683  1
  O  O27  1  0.49057867  0.98115733  0.73750683  1
  O  O28  1  0.49057867  0.50942133  0.73750683  1
  O  O29  1  0.00000000  0.00000000  0.25862817  1
  O  O30  1  0.66666667  0.33333333  0.07470517  1
  O  O31  1  0.50942133  0.49057867  0.26249317  1
  O  O32  1  0.50942133  0.01884267  0.26249317  1
  O  O33  1  0.98115733  0.49057867  0.26249317  1
  O  O34  1  0.68550933  0.84275467  0.07084017  1
  O  O35  1  0.15724533  0.31449067  0.07084017  1
  O  O36  1  0.15724533  0.84275467  0.07084017  1
  O  O37  1  0.66666667  0.33333333  0.59196150  1
  O  O38  1  0.33333333  0.66666667  0.40803850  1
  O  O39  1  0.17608800  0.82391200  0.59582650  1
  O  O40  1  0.17608800  0.35217600  0.59582650  1
  O  O41  1  0.64782400  0.82391200  0.59582650  1
  O  O42  1  0.35217600  0.17608800  0.40417350  1
  O  O43  1  0.82391200  0.64782400  0.40417350  1
  O  O44  1  0.82391200  0.17608800  0.40417350  1
