# generated using pymatgen
data_Li4Mn3Fe2Sb3O16
_symmetry_space_group_name_H-M   'P 1'
_cell_length_a   10.96604400
_cell_length_b   6.05658600
_cell_length_c   9.83442889
_cell_angle_alpha   90.00000000
_cell_angle_beta   92.39936359
_cell_angle_gamma   90.00000000
_symmetry_Int_Tables_number   1
_chemical_formula_structural   Li4Mn3Fe2Sb3O16
_chemical_formula_sum   'Li8 Mn6 Fe4 Sb6 O32'
_cell_volume   652.59854601
_cell_formula_units_Z   2
loop_
 _symmetry_equiv_pos_site_id
 _symmetry_equiv_pos_as_xyz
  1  'x, y, z'
loop_
 _atom_site_type_symbol
 _atom_site_label
 _atom_site_symmetry_multiplicity
 _atom_site_fract_x
 _atom_site_fract_y
 _atom_site_fract_z
 _atom_site_occupancy
  Li  Li0  1  0.66114800  0.00000000  0.88132400  1
  Li  Li1  1  0.98754100  0.00000000  0.98942400  1
  Li  Li2  1  0.50004800  0.50000000  0.50353200  1
  Li  Li3  1  0.82357300  0.50000000  0.39923700  1
  Li  Li4  1  0.16114800  0.50000000  0.88132400  1
  Li  Li5  1  0.48754100  0.50000000  0.98942400  1
  Li  Li6  1  0.00004800  0.00000000  0.50353200  1
  Li  Li7  1  0.32357300  0.00000000  0.39923700  1
  Mn  Mn8  1  0.83128700  0.00000000  0.21362100  1
  Mn  Mn9  1  0.91370350  0.74536250  0.71296800  1
  Mn  Mn10  1  0.91370350  0.25463750  0.71296800  1
  Mn  Mn11  1  0.33128700  0.50000000  0.21362100  1
  Mn  Mn12  1  0.41370350  0.24536250  0.71296800  1
  Mn  Mn13  1  0.41370350  0.75463750  0.71296800  1
  Fe  Fe14  1  0.67675400  0.00000000  0.50211200  1
  Fe  Fe15  1  0.84284700  0.50000000  0.98490200  1
  Fe  Fe16  1  0.17675400  0.50000000  0.50211200  1
  Fe  Fe17  1  0.34284700  0.00000000  0.98490200  1
  Sb  Sb18  1  0.58361000  0.24794400  0.21764500  1
  Sb  Sb19  1  0.58361000  0.75205600  0.21764500  1
  Sb  Sb20  1  0.67213500  0.50000000  0.71660700  1
  Sb  Sb21  1  0.08361000  0.74794400  0.21764500  1
  Sb  Sb22  1  0.08361000  0.25205600  0.21764500  1
  Sb  Sb23  1  0.17213500  0.00000000  0.71660700  1
  O  O24  1  0.59534000  0.25993100  0.59446600  1
  O  O25  1  0.51673300  0.00000000  0.33866700  1
  O  O26  1  0.65399500  0.00000000  0.10223200  1
  O  O27  1  0.50978200  0.50000000  0.32069400  1
  O  O28  1  0.50476700  0.50000000  0.80372400  1
  O  O29  1  0.59534000  0.74006900  0.59446600  1
  O  O30  1  0.72935350  0.22795150  0.34378900  1
  O  O31  1  0.72935350  0.77204850  0.34378900  1
  O  O32  1  0.65587100  0.50000000  0.10679900  1
  O  O33  1  0.84312300  0.00000000  0.59839700  1
  O  O34  1  0.75190300  0.72545100  0.83850000  1
  O  O35  1  0.75190300  0.27454900  0.83850000  1
  O  O36  1  0.83045600  0.50000000  0.60642600  1
  O  O37  1  0.93237400  0.75518800  0.10138800  1
  O  O38  1  0.97770000  0.50000000  0.82321000  1
  O  O39  1  0.93237400  0.24481200  0.10138800  1
  O  O40  1  0.09534000  0.75993100  0.59446600  1
  O  O41  1  0.01673300  0.50000000  0.33866700  1
  O  O42  1  0.15399500  0.50000000  0.10223200  1
  O  O43  1  0.00978200  0.00000000  0.32069400  1
  O  O44  1  0.00476700  0.00000000  0.80372400  1
  O  O45  1  0.09534000  0.24006900  0.59446600  1
  O  O46  1  0.22935350  0.72795150  0.34378900  1
  O  O47  1  0.22935350  0.27204850  0.34378900  1
  O  O48  1  0.15587100  0.00000000  0.10679900  1
  O  O49  1  0.34312300  0.50000000  0.59839700  1
  O  O50  1  0.25190300  0.22545100  0.83850000  1
  O  O51  1  0.25190300  0.77454900  0.83850000  1
  O  O52  1  0.33045600  0.00000000  0.60642600  1
  O  O53  1  0.43237400  0.25518800  0.10138800  1
  O  O54  1  0.47770000  0.00000000  0.82321000  1
  O  O55  1  0.43237400  0.74481200  0.10138800  1
