# generated using pymatgen
data_Li6W2O9
_symmetry_space_group_name_H-M   'P 1'
_cell_length_a   9.92065400
_cell_length_b   8.91283800
_cell_length_c   8.32740693
_cell_angle_alpha   90.00000000
_cell_angle_beta   114.75014395
_cell_angle_gamma   90.00000000
_symmetry_Int_Tables_number   1
_chemical_formula_structural   Li6W2O9
_chemical_formula_sum   'Li24 W8 O36'
_cell_volume   668.68244749
_cell_formula_units_Z   4
loop_
 _symmetry_equiv_pos_site_id
 _symmetry_equiv_pos_as_xyz
  1  'x, y, z'
loop_
 _atom_site_type_symbol
 _atom_site_label
 _atom_site_symmetry_multiplicity
 _atom_site_fract_x
 _atom_site_fract_y
 _atom_site_fract_z
 _atom_site_occupancy
  Li  Li0  1  0.83541000  0.81927400  0.41607700  1
  Li  Li1  1  0.83766900  0.50203500  0.41869000  1
  Li  Li2  1  0.32067400  0.67785500  0.41123000  1
  Li  Li3  1  0.32067400  0.32214500  0.91123000  1
  Li  Li4  1  0.83541000  0.18072600  0.91607700  1
  Li  Li5  1  0.83766900  0.49796500  0.91869000  1
  Li  Li6  1  0.16459000  0.18072600  0.58392300  1
  Li  Li7  1  0.16233100  0.49796500  0.58131000  1
  Li  Li8  1  0.67932600  0.32214500  0.58877000  1
  Li  Li9  1  0.16459000  0.81927400  0.08392300  1
  Li  Li10  1  0.16233100  0.50203500  0.08131000  1
  Li  Li11  1  0.67932600  0.67785500  0.08877000  1
  Li  Li12  1  0.33541000  0.31927400  0.41607700  1
  Li  Li13  1  0.33766900  0.00203500  0.41869000  1
  Li  Li14  1  0.82067400  0.17785500  0.41123000  1
  Li  Li15  1  0.82067400  0.82214500  0.91123000  1
  Li  Li16  1  0.33541000  0.68072600  0.91607700  1
  Li  Li17  1  0.33766900  0.99796500  0.91869000  1
  Li  Li18  1  0.66459000  0.68072600  0.58392300  1
  Li  Li19  1  0.66233100  0.99796500  0.58131000  1
  Li  Li20  1  0.17932600  0.82214500  0.58877000  1
  Li  Li21  1  0.66459000  0.31927400  0.08392300  1
  Li  Li22  1  0.66233100  0.00203500  0.08131000  1
  Li  Li23  1  0.17932600  0.17785500  0.08877000  1
  W  W24  1  0.00000000  0.98985500  0.25000000  1
  W  W25  1  0.00000000  0.01014500  0.75000000  1
  W  W26  1  0.00000000  0.63694700  0.75000000  1
  W  W27  1  0.00000000  0.36305300  0.25000000  1
  W  W28  1  0.50000000  0.48985500  0.25000000  1
  W  W29  1  0.50000000  0.51014500  0.75000000  1
  W  W30  1  0.50000000  0.13694700  0.75000000  1
  W  W31  1  0.50000000  0.86305300  0.25000000  1
  O  O32  1  0.83520450  0.48692350  0.16754700  1
  O  O33  1  0.34200750  0.64250850  0.66897600  1
  O  O34  1  0.34200750  0.35749150  0.16897600  1
  O  O35  1  0.85523700  0.83631800  0.67930000  1
  O  O36  1  0.85523700  0.16368200  0.17930000  1
  O  O37  1  0.83520450  0.51307650  0.66754700  1
  O  O38  1  0.99989700  0.66970400  0.52463800  1
  O  O39  1  0.00000000  0.00000000  0.00000000  1
  O  O40  1  0.00000000  0.00000000  0.50000000  1
  O  O41  1  0.00010300  0.66970400  0.97536200  1
  O  O42  1  0.65799250  0.35749150  0.33102400  1
  O  O43  1  0.16479550  0.48692350  0.33245300  1
  O  O44  1  0.14476300  0.83631800  0.82070000  1
  O  O45  1  0.65799250  0.64250850  0.83102400  1
  O  O46  1  0.14476300  0.16368200  0.32070000  1
  O  O47  1  0.16479550  0.51307650  0.83245300  1
  O  O48  1  0.00010300  0.33029600  0.47536200  1
  O  O49  1  0.99989700  0.33029600  0.02463800  1
  O  O50  1  0.33520450  0.98692350  0.16754700  1
  O  O51  1  0.84200750  0.14250850  0.66897600  1
  O  O52  1  0.84200750  0.85749150  0.16897600  1
  O  O53  1  0.35523700  0.33631800  0.67930000  1
  O  O54  1  0.35523700  0.66368200  0.17930000  1
  O  O55  1  0.33520450  0.01307650  0.66754700  1
  O  O56  1  0.49989700  0.16970400  0.52463800  1
  O  O57  1  0.50000000  0.50000000  0.00000000  1
  O  O58  1  0.50000000  0.50000000  0.50000000  1
  O  O59  1  0.50010300  0.16970400  0.97536200  1
  O  O60  1  0.15799250  0.85749150  0.33102400  1
  O  O61  1  0.66479550  0.98692350  0.33245300  1
  O  O62  1  0.64476300  0.33631800  0.82070000  1
  O  O63  1  0.15799250  0.14250850  0.83102400  1
  O  O64  1  0.64476300  0.66368200  0.32070000  1
  O  O65  1  0.66479550  0.01307650  0.83245300  1
  O  O66  1  0.50010300  0.83029600  0.47536200  1
  O  O67  1  0.49989700  0.83029600  0.02463800  1
