# generated using pymatgen
data_Li4Mn3TeO12
_symmetry_space_group_name_H-M   'P 1'
_cell_length_a   4.91467502
_cell_length_b   8.24619000
_cell_length_c   5.03370272
_cell_angle_alpha   90.00000000
_cell_angle_beta   90.18329497
_cell_angle_gamma   90.00000000
_symmetry_Int_Tables_number   1
_chemical_formula_structural   Li4Mn3TeO12
_chemical_formula_sum   'Li4 Mn3 Te1 O12'
_cell_volume   204.00155780
_cell_formula_units_Z   1
loop_
 _symmetry_equiv_pos_site_id
 _symmetry_equiv_pos_as_xyz
  1  'x, y, z'
loop_
 _atom_site_type_symbol
 _atom_site_label
 _atom_site_symmetry_multiplicity
 _atom_site_fract_x
 _atom_site_fract_y
 _atom_site_fract_z
 _atom_site_occupancy
  Li  Li0  1  0.00000000  0.70570800  0.00000000  1
  Li  Li1  1  0.50000000  0.80822900  0.00000000  1
  Li  Li2  1  0.00000000  0.31777700  0.50000000  1
  Li  Li3  1  0.50000000  0.19993200  0.50000000  1
  Mn  Mn4  1  0.50000000  0.41990600  0.00000000  1
  Mn  Mn5  1  0.00000000  0.90211700  0.50000000  1
  Mn  Mn6  1  0.50000000  0.60452700  0.50000000  1
  Te  Te7  1  0.00000000  0.10158800  0.00000000  1
  O  O8  1  0.24498700  0.26039000  0.84192700  1
  O  O9  1  0.30571900  0.59180100  0.83019500  1
  O  O10  1  0.20439700  0.92452900  0.82418200  1
  O  O11  1  0.69208100  0.42857500  0.67000400  1
  O  O12  1  0.79483900  0.08232600  0.67210000  1
  O  O13  1  0.75432600  0.75303000  0.65595700  1
  O  O14  1  0.24567400  0.75303000  0.34404300  1
  O  O15  1  0.20516100  0.08232600  0.32790000  1
  O  O16  1  0.30791900  0.42857500  0.32999600  1
  O  O17  1  0.79560300  0.92452900  0.17581800  1
  O  O18  1  0.69428100  0.59180100  0.16980500  1
  O  O19  1  0.75501300  0.26039000  0.15807300  1
