# generated using pymatgen
data_Li2CoP2O7
_symmetry_space_group_name_H-M   'P 1'
_cell_length_a   9.27400600
_cell_length_b   4.85411200
_cell_length_c   11.53629031
_cell_angle_alpha   90.00000000
_cell_angle_beta   96.25485702
_cell_angle_gamma   90.00000000
_symmetry_Int_Tables_number   1
_chemical_formula_structural   Li2CoP2O7
_chemical_formula_sum   'Li8 Co4 P8 O28'
_cell_volume   516.23840125
_cell_formula_units_Z   4
loop_
 _symmetry_equiv_pos_site_id
 _symmetry_equiv_pos_as_xyz
  1  'x, y, z'
loop_
 _atom_site_type_symbol
 _atom_site_label
 _atom_site_symmetry_multiplicity
 _atom_site_fract_x
 _atom_site_fract_y
 _atom_site_fract_z
 _atom_site_occupancy
  Li  Li0  1  0.85169700  0.22784500  0.33914800  1
  Li  Li1  1  0.64830300  0.72784500  0.16085200  1
  Li  Li2  1  0.85169700  0.77215500  0.83914800  1
  Li  Li3  1  0.64830300  0.27215500  0.66085200  1
  Li  Li4  1  0.35169700  0.72784500  0.33914800  1
  Li  Li5  1  0.14830300  0.22784500  0.16085200  1
  Li  Li6  1  0.35169700  0.27215500  0.83914800  1
  Li  Li7  1  0.14830300  0.77215500  0.66085200  1
  Co  Co8  1  0.75000000  0.75000000  0.50000000  1
  Co  Co9  1  0.75000000  0.25000000  0.00000000  1
  Co  Co10  1  0.25000000  0.25000000  0.50000000  1
  Co  Co11  1  0.25000000  0.75000000  0.00000000  1
  P  P12  1  0.94773250  0.29305450  0.62726300  1
  P  P13  1  0.55226750  0.79305450  0.87273700  1
  P  P14  1  0.94773250  0.70694550  0.12726300  1
  P  P15  1  0.55226750  0.20694550  0.37273700  1
  P  P16  1  0.44773250  0.79305450  0.62726300  1
  P  P17  1  0.05226750  0.29305450  0.87273700  1
  P  P18  1  0.44773250  0.20694550  0.12726300  1
  P  P19  1  0.05226750  0.70694550  0.37273700  1
  O  O20  1  0.90960700  0.59162800  0.40475500  1
  O  O21  1  0.66104550  0.01091650  0.83955200  1
  O  O22  1  0.62155300  0.57838200  0.95439400  1
  O  O23  1  0.59039300  0.09162800  0.09524500  1
  O  O24  1  0.00000000  0.11222000  0.75000000  1
  O  O25  1  0.87844700  0.07838200  0.54560600  1
  O  O26  1  0.83895450  0.51091650  0.66044800  1
  O  O27  1  0.66104550  0.98908350  0.33955200  1
  O  O28  1  0.62155300  0.42161800  0.45439400  1
  O  O29  1  0.00000000  0.88778000  0.25000000  1
  O  O30  1  0.90960700  0.40837200  0.90475500  1
  O  O31  1  0.87844700  0.92161800  0.04560600  1
  O  O32  1  0.83895450  0.48908350  0.16044800  1
  O  O33  1  0.59039300  0.90837200  0.59524500  1
  O  O34  1  0.40960700  0.09162800  0.40475500  1
  O  O35  1  0.16104550  0.51091650  0.83955200  1
  O  O36  1  0.12155300  0.07838200  0.95439400  1
  O  O37  1  0.09039300  0.59162800  0.09524500  1
  O  O38  1  0.50000000  0.61222000  0.75000000  1
  O  O39  1  0.37844700  0.57838200  0.54560600  1
  O  O40  1  0.33895450  0.01091650  0.66044800  1
  O  O41  1  0.16104550  0.48908350  0.33955200  1
  O  O42  1  0.12155300  0.92161800  0.45439400  1
  O  O43  1  0.50000000  0.38778000  0.25000000  1
  O  O44  1  0.40960700  0.90837200  0.90475500  1
  O  O45  1  0.37844700  0.42161800  0.04560600  1
  O  O46  1  0.33895450  0.98908350  0.16044800  1
  O  O47  1  0.09039300  0.40837200  0.59524500  1
