# generated using pymatgen
data_LiCoPO4
_symmetry_space_group_name_H-M   'P 1'
_cell_length_a   8.25998403
_cell_length_b   5.76606400
_cell_length_c   15.94061453
_cell_angle_alpha   90.00000000
_cell_angle_beta   91.89090009
_cell_angle_gamma   90.00000000
_symmetry_Int_Tables_number   1
_chemical_formula_structural   LiCoPO4
_chemical_formula_sum   'Li8 Co8 P8 O32'
_cell_volume   758.79974218
_cell_formula_units_Z   8
loop_
 _symmetry_equiv_pos_site_id
 _symmetry_equiv_pos_as_xyz
  1  'x, y, z'
loop_
 _atom_site_type_symbol
 _atom_site_label
 _atom_site_symmetry_multiplicity
 _atom_site_fract_x
 _atom_site_fract_y
 _atom_site_fract_z
 _atom_site_occupancy
  Li  Li0  1  0.72537650  0.97533650  0.75712650  1
  Li  Li1  1  0.72537650  0.02466350  0.25712650  1
  Li  Li2  1  0.27462350  0.97533650  0.74287350  1
  Li  Li3  1  0.27462350  0.02466350  0.24287350  1
  Li  Li4  1  0.22537650  0.47533650  0.75712650  1
  Li  Li5  1  0.22537650  0.52466350  0.25712650  1
  Li  Li6  1  0.77462350  0.47533650  0.74287350  1
  Li  Li7  1  0.77462350  0.52466350  0.24287350  1
  Co  Co8  1  0.34302150  0.73750550  0.91766050  1
  Co  Co9  1  0.34302150  0.26249450  0.41766050  1
  Co  Co10  1  0.65697850  0.73750550  0.58233950  1
  Co  Co11  1  0.65697850  0.26249450  0.08233950  1
  Co  Co12  1  0.84302150  0.23750550  0.91766050  1
  Co  Co13  1  0.84302150  0.76249450  0.41766050  1
  Co  Co14  1  0.15697850  0.23750550  0.58233950  1
  Co  Co15  1  0.15697850  0.76249450  0.08233950  1
  P  P16  1  0.51388300  0.23594500  0.87097250  1
  P  P17  1  0.48611700  0.23594500  0.62902750  1
  P  P18  1  0.51388300  0.76405500  0.37097250  1
  P  P19  1  0.48611700  0.76405500  0.12902750  1
  P  P20  1  0.01388300  0.73594500  0.87097250  1
  P  P21  1  0.98611700  0.73594500  0.62902750  1
  P  P22  1  0.01388300  0.26405500  0.37097250  1
  P  P23  1  0.98611700  0.26405500  0.12902750  1
  O  O24  1  0.65396550  0.26361750  0.80915050  1
  O  O25  1  0.65396550  0.73638250  0.30915050  1
  O  O26  1  0.34603450  0.26361750  0.69084950  1
  O  O27  1  0.34603450  0.73638250  0.19084950  1
  O  O28  1  0.11322200  0.93184800  0.63645950  1
  O  O29  1  0.11322200  0.06815200  0.13645950  1
  O  O30  1  0.88677800  0.93184800  0.86354050  1
  O  O31  1  0.88677800  0.06815200  0.36354050  1
  O  O32  1  0.56710100  0.99774000  0.64709150  1
  O  O33  1  0.56710100  0.00226000  0.14709150  1
  O  O34  1  0.43289900  0.99774000  0.85290850  1
  O  O35  1  0.43289900  0.00226000  0.35290850  1
  O  O36  1  0.60414200  0.23984500  0.95921550  1
  O  O37  1  0.60414200  0.76015500  0.45921550  1
  O  O38  1  0.39585800  0.23984500  0.54078450  1
  O  O39  1  0.39585800  0.76015500  0.04078450  1
  O  O40  1  0.15396550  0.76361750  0.80915050  1
  O  O41  1  0.15396550  0.23638250  0.30915050  1
  O  O42  1  0.84603450  0.76361750  0.69084950  1
  O  O43  1  0.84603450  0.23638250  0.19084950  1
  O  O44  1  0.61322200  0.43184800  0.63645950  1
  O  O45  1  0.61322200  0.56815200  0.13645950  1
  O  O46  1  0.38677800  0.43184800  0.86354050  1
  O  O47  1  0.38677800  0.56815200  0.36354050  1
  O  O48  1  0.06710100  0.49774000  0.64709150  1
  O  O49  1  0.06710100  0.50226000  0.14709150  1
  O  O50  1  0.93289900  0.49774000  0.85290850  1
  O  O51  1  0.93289900  0.50226000  0.35290850  1
  O  O52  1  0.10414200  0.73984500  0.95921550  1
  O  O53  1  0.10414200  0.26015500  0.45921550  1
  O  O54  1  0.89585800  0.73984500  0.54078450  1
  O  O55  1  0.89585800  0.26015500  0.04078450  1
