# generated using pymatgen
data_Li4Ni3SbO8
_symmetry_space_group_name_H-M   'P 1'
_cell_length_a   5.98205401
_cell_length_b   5.98205401
_cell_length_c   14.66244406
_cell_angle_alpha   90.00000000
_cell_angle_beta   90.00000000
_cell_angle_gamma   120.00000000
_symmetry_Int_Tables_number   1
_chemical_formula_structural   Li4Ni3SbO8
_chemical_formula_sum   'Li12 Ni9 Sb3 O24'
_cell_volume   454.39930571
_cell_formula_units_Z   3
loop_
 _symmetry_equiv_pos_site_id
 _symmetry_equiv_pos_as_xyz
  1  'x, y, z'
loop_
 _atom_site_type_symbol
 _atom_site_label
 _atom_site_symmetry_multiplicity
 _atom_site_fract_x
 _atom_site_fract_y
 _atom_site_fract_z
 _atom_site_occupancy
  Li  Li0  1  0.33333333  0.66666667  0.16666667  1
  Li  Li1  1  0.83333333  0.66666667  0.16666667  1
  Li  Li2  1  0.83333333  0.16666667  0.16666667  1
  Li  Li3  1  0.33333333  0.16666667  0.16666667  1
  Li  Li4  1  1.00000000  1.00000000  0.50000000  1
  Li  Li5  1  0.50000000  0.00000000  0.50000000  1
  Li  Li6  1  0.50000000  0.50000000  0.50000000  1
  Li  Li7  1  0.00000000  0.50000000  0.50000000  1
  Li  Li8  1  0.66666667  0.33333333  0.83333333  1
  Li  Li9  1  0.16666667  0.33333333  0.83333333  1
  Li  Li10  1  0.16666667  0.83333333  0.83333333  1
  Li  Li11  1  0.66666667  0.83333333  0.83333333  1
  Ni  Ni12  1  0.50000000  0.00000000  0.00000000  1
  Ni  Ni13  1  0.50000000  0.50000000  0.00000000  1
  Ni  Ni14  1  0.00000000  0.50000000  0.00000000  1
  Ni  Ni15  1  0.16666667  0.33333333  0.33333333  1
  Ni  Ni16  1  0.16666667  0.83333333  0.33333333  1
  Ni  Ni17  1  0.66666667  0.83333333  0.33333333  1
  Ni  Ni18  1  0.83333333  0.66666667  0.66666667  1
  Ni  Ni19  1  0.83333333  0.16666667  0.66666667  1
  Ni  Ni20  1  0.33333333  0.16666667  0.66666667  1
  Sb  Sb21  1  0.00000000  0.00000000  0.00000000  1
  Sb  Sb22  1  0.66666667  0.33333333  0.33333333  1
  Sb  Sb23  1  0.33333333  0.66666667  0.66666667  1
  O  O24  1  0.66666667  0.33333333  0.07061233  1
  O  O25  1  0.15965200  0.31930400  0.07850300  1
  O  O26  1  0.15965200  0.84034800  0.07850300  1
  O  O27  1  0.00000000  0.00000000  0.26272100  1
  O  O28  1  0.68069600  0.84034800  0.07850300  1
  O  O29  1  0.50701467  0.01402933  0.25483033  1
  O  O30  1  0.50701467  0.49298533  0.25483033  1
  O  O31  1  0.98597067  0.49298533  0.25483033  1
  O  O32  1  0.33333333  0.66666667  0.40394567  1
  O  O33  1  0.82631867  0.65263733  0.41183633  1
  O  O34  1  0.82631867  0.17368133  0.41183633  1
  O  O35  1  0.66666667  0.33333333  0.59605433  1
  O  O36  1  0.34736267  0.17368133  0.41183633  1
  O  O37  1  0.17368133  0.34736267  0.58816367  1
  O  O38  1  0.17368133  0.82631867  0.58816367  1
  O  O39  1  0.65263733  0.82631867  0.58816367  1
  O  O40  1  0.00000000  0.00000000  0.73727900  1
  O  O41  1  0.49298533  0.98597067  0.74516967  1
  O  O42  1  0.49298533  0.50701467  0.74516967  1
  O  O43  1  0.33333333  0.66666667  0.92938767  1
  O  O44  1  0.01402933  0.50701467  0.74516967  1
  O  O45  1  0.84034800  0.68069600  0.92149700  1
  O  O46  1  0.84034800  0.15965200  0.92149700  1
  O  O47  1  0.31930400  0.15965200  0.92149700  1
