# generated using pymatgen
data_LiCoBO3
_symmetry_space_group_name_H-M   'P 1'
_cell_length_a   5.17490167
_cell_length_b   8.92720884
_cell_length_c   10.35182978
_cell_angle_alpha   90.00000000
_cell_angle_beta   90.94667833
_cell_angle_gamma   90.00000000
_symmetry_Int_Tables_number   1
_chemical_formula_structural   LiCoBO3
_chemical_formula_sum   'Li8 Co8 B8 O24'
_cell_volume   478.16263360
_cell_formula_units_Z   8
loop_
 _symmetry_equiv_pos_site_id
 _symmetry_equiv_pos_as_xyz
  1  'x, y, z'
loop_
 _atom_site_type_symbol
 _atom_site_label
 _atom_site_symmetry_multiplicity
 _atom_site_fract_x
 _atom_site_fract_y
 _atom_site_fract_z
 _atom_site_occupancy
  Li  Li0  1  0.83770250  0.00639550  0.33557900  1
  Li  Li1  1  0.83770250  0.99360450  0.83557900  1
  Li  Li2  1  0.16215550  0.99841350  0.08652100  1
  Li  Li3  1  0.16215550  0.00158650  0.58652100  1
  Li  Li4  1  0.33770250  0.50639550  0.33557900  1
  Li  Li5  1  0.33770250  0.49360450  0.83557900  1
  Li  Li6  1  0.66215550  0.49841350  0.08652100  1
  Li  Li7  1  0.66215550  0.50158650  0.58652100  1
  Co  Co8  1  0.66181500  0.16530400  0.60486600  1
  Co  Co9  1  0.33734050  0.16486150  0.85594900  1
  Co  Co10  1  0.66181500  0.83469600  0.10486600  1
  Co  Co11  1  0.33734050  0.83513850  0.35594900  1
  Co  Co12  1  0.16181500  0.66530400  0.60486600  1
  Co  Co13  1  0.83734050  0.66486150  0.85594900  1
  Co  Co14  1  0.16181500  0.33469600  0.10486600  1
  Co  Co15  1  0.83734050  0.33513850  0.35594900  1
  B  B16  1  0.66512900  0.16772900  0.12752800  1
  B  B17  1  0.33261400  0.16826100  0.37775300  1
  B  B18  1  0.66512900  0.83227100  0.62752800  1
  B  B19  1  0.33261400  0.83173900  0.87775300  1
  B  B20  1  0.16512900  0.66772900  0.12752800  1
  B  B21  1  0.83261400  0.66826100  0.37775300  1
  B  B22  1  0.16512900  0.33227100  0.62752800  1
  B  B23  1  0.83261400  0.33173900  0.87775300  1
  O  O24  1  0.71678500  0.19790000  0.84408300  1
  O  O25  1  0.60096650  0.16460150  0.40574600  1
  O  O26  1  0.80679200  0.03712000  0.14171700  1
  O  O27  1  0.40738000  0.16536200  0.09164300  1
  O  O28  1  0.28873800  0.19448500  0.65620500  1
  O  O29  1  0.80679200  0.96288000  0.64171700  1
  O  O30  1  0.19185800  0.03747200  0.39056400  1
  O  O31  1  0.71678500  0.80210000  0.34408300  1
  O  O32  1  0.60096650  0.83539850  0.90574600  1
  O  O33  1  0.19185800  0.96252800  0.89056400  1
  O  O34  1  0.40738000  0.83463800  0.59164300  1
  O  O35  1  0.28873800  0.80551500  0.15620500  1
  O  O36  1  0.21678500  0.69790000  0.84408300  1
  O  O37  1  0.10096650  0.66460150  0.40574600  1
  O  O38  1  0.30679200  0.53712000  0.14171700  1
  O  O39  1  0.90738000  0.66536200  0.09164300  1
  O  O40  1  0.78873800  0.69448500  0.65620500  1
  O  O41  1  0.30679200  0.46288000  0.64171700  1
  O  O42  1  0.69185800  0.53747200  0.39056400  1
  O  O43  1  0.21678500  0.30210000  0.34408300  1
  O  O44  1  0.10096650  0.33539850  0.90574600  1
  O  O45  1  0.69185800  0.46252800  0.89056400  1
  O  O46  1  0.90738000  0.33463800  0.59164300  1
  O  O47  1  0.78873800  0.30551500  0.15620500  1
