# generated using pymatgen
data_Ce2Ga10Ni
_symmetry_space_group_name_H-M   'P 1'
_cell_length_a   4.34033200
_cell_length_b   4.34033200
_cell_length_c   26.21660600
_cell_angle_alpha   90.00000000
_cell_angle_beta   90.00000000
_cell_angle_gamma   90.00000000
_symmetry_Int_Tables_number   1
_chemical_formula_structural   Ce2Ga10Ni
_chemical_formula_sum   'Ce4 Ga20 Ni2'
_cell_volume   493.88105683
_cell_formula_units_Z   2
loop_
 _symmetry_equiv_pos_site_id
 _symmetry_equiv_pos_as_xyz
  1  'x, y, z'
loop_
 _atom_site_type_symbol
 _atom_site_label
 _atom_site_symmetry_multiplicity
 _atom_site_fract_x
 _atom_site_fract_y
 _atom_site_fract_z
 _atom_site_occupancy
  Ce  Ce0  1  0.50000000  0.50000000  0.14219800  1
  Ce  Ce1  1  0.00000000  0.00000000  0.35780200  1
  Ce  Ce2  1  0.00000000  0.00000000  0.64219800  1
  Ce  Ce3  1  0.50000000  0.50000000  0.85780200  1
  Ga  Ga4  1  0.50000000  0.50000000  0.30388500  1
  Ga  Ga5  1  0.50000000  0.00000000  0.25000000  1
  Ga  Ga6  1  0.00000000  0.50000000  0.25000000  1
  Ga  Ga7  1  0.50000000  0.00000000  0.45081900  1
  Ga  Ga8  1  0.00000000  0.50000000  0.45081900  1
  Ga  Ga9  1  0.00000000  0.50000000  0.04918100  1
  Ga  Ga10  1  0.50000000  0.00000000  0.04918100  1
  Ga  Ga11  1  0.00000000  0.00000000  0.10423600  1
  Ga  Ga12  1  0.50000000  0.50000000  0.39576400  1
  Ga  Ga13  1  0.00000000  0.00000000  0.19611500  1
  Ga  Ga14  1  0.00000000  0.00000000  0.80388500  1
  Ga  Ga15  1  0.00000000  0.50000000  0.75000000  1
  Ga  Ga16  1  0.50000000  0.00000000  0.75000000  1
  Ga  Ga17  1  0.00000000  0.50000000  0.95081900  1
  Ga  Ga18  1  0.50000000  0.00000000  0.95081900  1
  Ga  Ga19  1  0.50000000  0.00000000  0.54918100  1
  Ga  Ga20  1  0.00000000  0.50000000  0.54918100  1
  Ga  Ga21  1  0.50000000  0.50000000  0.60423600  1
  Ga  Ga22  1  0.00000000  0.00000000  0.89576400  1
  Ga  Ga23  1  0.50000000  0.50000000  0.69611500  1
  Ni  Ni24  1  0.50000000  0.50000000  0.00000000  1
  Ni  Ni25  1  0.00000000  0.00000000  0.50000000  1
