# generated using pymatgen
data_MnCr3O8
_symmetry_space_group_name_H-M   'P 1'
_cell_length_a   5.88945556
_cell_length_b   10.07963974
_cell_length_c   8.88549502
_cell_angle_alpha   90.00000000
_cell_angle_beta   90.00000000
_cell_angle_gamma   90.00000000
_symmetry_Int_Tables_number   1
_chemical_formula_structural   MnCr3O8
_chemical_formula_sum   'Mn4 Cr12 O32'
_cell_volume   527.47488621
_cell_formula_units_Z   4
loop_
 _symmetry_equiv_pos_site_id
 _symmetry_equiv_pos_as_xyz
  1  'x, y, z'
loop_
 _atom_site_type_symbol
 _atom_site_label
 _atom_site_symmetry_multiplicity
 _atom_site_fract_x
 _atom_site_fract_y
 _atom_site_fract_z
 _atom_site_occupancy
  Mn  Mn0  1  0.50000000  0.33687250  0.51662300  1
  Mn  Mn1  1  0.50000000  0.66312750  0.01662300  1
  Mn  Mn2  1  0.00000000  0.83687250  0.51662300  1
  Mn  Mn3  1  0.00000000  0.16312750  0.01662300  1
  Cr  Cr4  1  0.24916000  0.41837650  0.79777200  1
  Cr  Cr5  1  0.75084000  0.41837650  0.79777200  1
  Cr  Cr6  1  0.50000000  0.17153500  0.78144000  1
  Cr  Cr7  1  0.50000000  0.82846500  0.28144000  1
  Cr  Cr8  1  0.24916000  0.58162350  0.29777200  1
  Cr  Cr9  1  0.75084000  0.58162350  0.29777200  1
  Cr  Cr10  1  0.74916000  0.91837650  0.79777200  1
  Cr  Cr11  1  0.25084000  0.91837650  0.79777200  1
  Cr  Cr12  1  0.00000000  0.67153500  0.78144000  1
  Cr  Cr13  1  0.00000000  0.32846500  0.28144000  1
  Cr  Cr14  1  0.74916000  0.08162350  0.29777200  1
  Cr  Cr15  1  0.25084000  0.08162350  0.29777200  1
  O  O16  1  0.25778300  0.41939650  0.39517700  1
  O  O17  1  0.50000000  0.47522250  0.66322500  1
  O  O18  1  0.50000000  0.32726900  0.90190000  1
  O  O19  1  0.50000000  0.00504900  0.68930900  1
  O  O20  1  0.50000000  0.99495100  0.18930900  1
  O  O21  1  0.74221700  0.41939650  0.39517700  1
  O  O22  1  0.28576600  0.26409550  0.65683500  1
  O  O23  1  0.71423400  0.26409550  0.65683500  1
  O  O24  1  0.50000000  0.82702850  0.89008400  1
  O  O25  1  0.50000000  0.17297150  0.39008400  1
  O  O26  1  0.28576600  0.73590450  0.15683500  1
  O  O27  1  0.71423400  0.73590450  0.15683500  1
  O  O28  1  0.50000000  0.67273100  0.40190000  1
  O  O29  1  0.25778300  0.58060350  0.89517700  1
  O  O30  1  0.50000000  0.52477750  0.16322500  1
  O  O31  1  0.74221700  0.58060350  0.89517700  1
  O  O32  1  0.75778300  0.91939650  0.39517700  1
  O  O33  1  0.00000000  0.97522250  0.66322500  1
  O  O34  1  0.00000000  0.82726900  0.90190000  1
  O  O35  1  0.00000000  0.50504900  0.68930900  1
  O  O36  1  0.00000000  0.49495100  0.18930900  1
  O  O37  1  0.24221700  0.91939650  0.39517700  1
  O  O38  1  0.78576600  0.76409550  0.65683500  1
  O  O39  1  0.21423400  0.76409550  0.65683500  1
  O  O40  1  0.00000000  0.32702850  0.89008400  1
  O  O41  1  0.00000000  0.67297150  0.39008400  1
  O  O42  1  0.78576600  0.23590450  0.15683500  1
  O  O43  1  0.21423400  0.23590450  0.15683500  1
  O  O44  1  0.00000000  0.17273100  0.40190000  1
  O  O45  1  0.75778300  0.08060350  0.89517700  1
  O  O46  1  0.00000000  0.02477750  0.16322500  1
  O  O47  1  0.24221700  0.08060350  0.89517700  1
