# generated using pymatgen
data_Li4Si3NiO9
_symmetry_space_group_name_H-M   'P 1'
_cell_length_a   7.34395400
_cell_length_b   10.11862800
_cell_length_c   9.98509392
_cell_angle_alpha   90.00000000
_cell_angle_beta   91.51771237
_cell_angle_gamma   90.00000000
_symmetry_Int_Tables_number   1
_chemical_formula_structural   Li4Si3NiO9
_chemical_formula_sum   'Li16 Si12 Ni4 O36'
_cell_volume   741.73939936
_cell_formula_units_Z   4
loop_
 _symmetry_equiv_pos_site_id
 _symmetry_equiv_pos_as_xyz
  1  'x, y, z'
loop_
 _atom_site_type_symbol
 _atom_site_label
 _atom_site_symmetry_multiplicity
 _atom_site_fract_x
 _atom_site_fract_y
 _atom_site_fract_z
 _atom_site_occupancy
  Li  Li0  1  0.28466050  0.90652450  0.21045600  1
  Li  Li1  1  0.36256700  0.17635100  0.78742200  1
  Li  Li2  1  0.50000000  0.94032500  0.50000000  1
  Li  Li3  1  0.50000000  0.50939800  0.50000000  1
  Li  Li4  1  0.50000000  0.87414000  0.00000000  1
  Li  Li5  1  0.50000000  0.49882300  0.00000000  1
  Li  Li6  1  0.63743300  0.17635100  0.21257800  1
  Li  Li7  1  0.71533950  0.90652450  0.78954400  1
  Li  Li8  1  0.78466050  0.40652450  0.21045600  1
  Li  Li9  1  0.86256700  0.67635100  0.78742200  1
  Li  Li10  1  0.00000000  0.44032500  0.50000000  1
  Li  Li11  1  0.00000000  0.00939800  0.50000000  1
  Li  Li12  1  0.00000000  0.37414000  0.00000000  1
  Li  Li13  1  0.00000000  0.99882300  0.00000000  1
  Li  Li14  1  0.13743300  0.67635100  0.21257800  1
  Li  Li15  1  0.21533950  0.40652450  0.78954400  1
  Si  Si16  1  0.22767350  0.89021150  0.74731300  1
  Si  Si17  1  0.29340800  0.22127900  0.49392900  1
  Si  Si18  1  0.30912100  0.18106600  0.05252200  1
  Si  Si19  1  0.69087900  0.18106600  0.94747800  1
  Si  Si20  1  0.70659200  0.22127900  0.50607100  1
  Si  Si21  1  0.77232650  0.89021150  0.25268700  1
  Si  Si22  1  0.72767350  0.39021150  0.74731300  1
  Si  Si23  1  0.79340800  0.72127900  0.49392900  1
  Si  Si24  1  0.80912100  0.68106600  0.05252200  1
  Si  Si25  1  0.19087900  0.68106600  0.94747800  1
  Si  Si26  1  0.20659200  0.72127900  0.50607100  1
  Si  Si27  1  0.27232650  0.39021150  0.25268700  1
  Ni  Ni28  1  0.49242950  0.67716250  0.24911200  1
  Ni  Ni29  1  0.50757050  0.67716250  0.75088800  1
  Ni  Ni30  1  0.99242950  0.17716250  0.24911200  1
  Ni  Ni31  1  0.00757050  0.17716250  0.75088800  1
  O  O32  1  0.17408800  0.03457200  0.79307800  1
  O  O33  1  0.17740150  0.86763650  0.58437100  1
  O  O34  1  0.17873350  0.07336850  0.12004700  1
  O  O35  1  0.15802700  0.12787900  0.40812400  1
  O  O36  1  0.27912000  0.77280900  0.06391500  1
  O  O37  1  0.26697700  0.76364900  0.35783000  1
  O  O38  1  0.39803800  0.27764500  0.17474100  1
  O  O39  1  0.44261100  0.86756200  0.77517500  1
  O  O40  1  0.50000000  0.14505800  0.50000000  1
  O  O41  1  0.50000000  0.10516200  0.00000000  1
  O  O42  1  0.55738900  0.86756200  0.22482500  1
  O  O43  1  0.60196200  0.27764500  0.82525900  1
  O  O44  1  0.73302300  0.76364900  0.64217000  1
  O  O45  1  0.72088000  0.77280900  0.93608500  1
  O  O46  1  0.84197300  0.12787900  0.59187600  1
  O  O47  1  0.82126650  0.07336850  0.87995300  1
  O  O48  1  0.82259850  0.86763650  0.41562900  1
  O  O49  1  0.82591200  0.03457200  0.20692200  1
  O  O50  1  0.67408800  0.53457200  0.79307800  1
  O  O51  1  0.67740150  0.36763650  0.58437100  1
  O  O52  1  0.67873350  0.57336850  0.12004700  1
  O  O53  1  0.65802700  0.62787900  0.40812400  1
  O  O54  1  0.77912000  0.27280900  0.06391500  1
  O  O55  1  0.76697700  0.26364900  0.35783000  1
  O  O56  1  0.89803800  0.77764500  0.17474100  1
  O  O57  1  0.94261100  0.36756200  0.77517500  1
  O  O58  1  0.00000000  0.64505800  0.50000000  1
  O  O59  1  0.00000000  0.60516200  0.00000000  1
  O  O60  1  0.05738900  0.36756200  0.22482500  1
  O  O61  1  0.10196200  0.77764500  0.82525900  1
  O  O62  1  0.23302300  0.26364900  0.64217000  1
  O  O63  1  0.22088000  0.27280900  0.93608500  1
  O  O64  1  0.34197300  0.62787900  0.59187600  1
  O  O65  1  0.32126650  0.57336850  0.87995300  1
  O  O66  1  0.32259850  0.36763650  0.41562900  1
  O  O67  1  0.32591200  0.53457200  0.20692200  1
