# generated using pymatgen
data_Na2BiO3
_symmetry_space_group_name_H-M   'P 1'
_cell_length_a   6.00110200
_cell_length_b   10.35184400
_cell_length_c   5.95252810
_cell_angle_alpha   90.00000000
_cell_angle_beta   109.84717885
_cell_angle_gamma   90.00000000
_symmetry_Int_Tables_number   1
_chemical_formula_structural   Na2BiO3
_chemical_formula_sum   'Na8 Bi4 O12'
_cell_volume   347.82104796
_cell_formula_units_Z   4
loop_
 _symmetry_equiv_pos_site_id
 _symmetry_equiv_pos_as_xyz
  1  'x, y, z'
loop_
 _atom_site_type_symbol
 _atom_site_label
 _atom_site_symmetry_multiplicity
 _atom_site_fract_x
 _atom_site_fract_y
 _atom_site_fract_z
 _atom_site_occupancy
  Na  Na0  1  0.50000000  0.65883200  0.50000000  1
  Na  Na1  1  0.50000000  0.34116800  0.50000000  1
  Na  Na2  1  0.50000000  0.00000000  0.50000000  1
  Na  Na3  1  0.00000000  0.00000000  0.00000000  1
  Na  Na4  1  0.00000000  0.15883200  0.50000000  1
  Na  Na5  1  0.00000000  0.84116800  0.50000000  1
  Na  Na6  1  0.00000000  0.50000000  0.50000000  1
  Na  Na7  1  0.50000000  0.50000000  0.00000000  1
  Bi  Bi8  1  0.50000000  0.16686900  0.00000000  1
  Bi  Bi9  1  0.50000000  0.83313100  0.00000000  1
  Bi  Bi10  1  0.00000000  0.66686900  0.00000000  1
  Bi  Bi11  1  0.00000000  0.33313100  0.00000000  1
  O  O12  1  0.28599100  0.00000000  0.77476600  1
  O  O13  1  0.25531400  0.81817000  0.21908700  1
  O  O14  1  0.25531400  0.18183000  0.21908700  1
  O  O15  1  0.74468600  0.18183000  0.78091300  1
  O  O16  1  0.74468600  0.81817000  0.78091300  1
  O  O17  1  0.71400900  0.00000000  0.22523400  1
  O  O18  1  0.78599100  0.50000000  0.77476600  1
  O  O19  1  0.75531400  0.31817000  0.21908700  1
  O  O20  1  0.75531400  0.68183000  0.21908700  1
  O  O21  1  0.24468600  0.68183000  0.78091300  1
  O  O22  1  0.24468600  0.31817000  0.78091300  1
  O  O23  1  0.21400900  0.50000000  0.22523400  1
