# generated using pymatgen
data_Li9(FeO4)2
_symmetry_space_group_name_H-M   'P 1'
_cell_length_a   9.18998000
_cell_length_b   9.13241000
_cell_length_c   4.69459555
_cell_angle_alpha   90.00000000
_cell_angle_beta   90.40199925
_cell_angle_gamma   90.00000000
_symmetry_Int_Tables_number   1
_chemical_formula_structural   Li9(FeO4)2
_chemical_formula_sum   'Li18 Fe4 O16'
_cell_volume   393.99205149
_cell_formula_units_Z   2
loop_
 _symmetry_equiv_pos_site_id
 _symmetry_equiv_pos_as_xyz
  1  'x, y, z'
loop_
 _atom_site_type_symbol
 _atom_site_label
 _atom_site_symmetry_multiplicity
 _atom_site_fract_x
 _atom_site_fract_y
 _atom_site_fract_z
 _atom_site_occupancy
  Li  Li0  1  0.50000000  0.54942000  0.50000000  1
  Li  Li1  1  0.24831900  0.00007300  0.43811000  1
  Li  Li2  1  0.26993900  0.99718000  0.92714500  1
  Li  Li3  1  0.50000000  0.96561700  0.50000000  1
  Li  Li4  1  0.29019100  0.24577900  0.99589300  1
  Li  Li5  1  0.73006100  0.99718000  0.07285500  1
  Li  Li6  1  0.75168100  0.00007300  0.56189000  1
  Li  Li7  1  0.70980900  0.24577900  0.00410700  1
  Li  Li8  1  0.50000000  0.46836500  0.00000000  1
  Li  Li9  1  0.00000000  0.04942000  0.50000000  1
  Li  Li10  1  0.74831900  0.50007300  0.43811000  1
  Li  Li11  1  0.76993900  0.49718000  0.92714500  1
  Li  Li12  1  0.00000000  0.46561700  0.50000000  1
  Li  Li13  1  0.79019100  0.74577900  0.99589300  1
  Li  Li14  1  0.23006100  0.49718000  0.07285500  1
  Li  Li15  1  0.25168100  0.50007300  0.56189000  1
  Li  Li16  1  0.20980900  0.74577900  0.00410700  1
  Li  Li17  1  0.00000000  0.96836500  0.00000000  1
  Fe  Fe18  1  0.50000000  0.75328700  0.00000000  1
  Fe  Fe19  1  0.50000000  0.25060400  0.50000000  1
  Fe  Fe20  1  0.00000000  0.25328700  0.00000000  1
  Fe  Fe21  1  0.00000000  0.75060400  0.50000000  1
  O  O22  1  0.11828850  0.88852950  0.71170900  1
  O  O23  1  0.37148750  0.87033250  0.18933200  1
  O  O24  1  0.12832000  0.11802500  0.17200700  1
  O  O25  1  0.37539600  0.11931200  0.68657000  1
  O  O26  1  0.62851250  0.87033250  0.81066800  1
  O  O27  1  0.62460400  0.11931200  0.31343000  1
  O  O28  1  0.88171150  0.88852950  0.28829100  1
  O  O29  1  0.87168000  0.11802500  0.82799300  1
  O  O30  1  0.61828850  0.38852950  0.71170900  1
  O  O31  1  0.87148750  0.37033250  0.18933200  1
  O  O32  1  0.62832000  0.61802500  0.17200700  1
  O  O33  1  0.87539600  0.61931200  0.68657000  1
  O  O34  1  0.12851250  0.37033250  0.81066800  1
  O  O35  1  0.12460400  0.61931200  0.31343000  1
  O  O36  1  0.38171150  0.38852950  0.28829100  1
  O  O37  1  0.37168000  0.61802500  0.82799300  1
