# generated using pymatgen
data_Li2Fe2OF4
_symmetry_space_group_name_H-M   'P 1'
_cell_length_a   3.03121300
_cell_length_b   9.93834201
_cell_length_c   12.66112500
_cell_angle_alpha   90.00000000
_cell_angle_beta   90.00000000
_cell_angle_gamma   90.00000000
_symmetry_Int_Tables_number   1
_chemical_formula_structural   Li2Fe2OF4
_chemical_formula_sum   'Li8 Fe8 O4 F16'
_cell_volume   381.41932183
_cell_formula_units_Z   4
loop_
 _symmetry_equiv_pos_site_id
 _symmetry_equiv_pos_as_xyz
  1  'x, y, z'
loop_
 _atom_site_type_symbol
 _atom_site_label
 _atom_site_symmetry_multiplicity
 _atom_site_fract_x
 _atom_site_fract_y
 _atom_site_fract_z
 _atom_site_occupancy
  Li  Li0  1  0.50000000  0.22869500  0.88554100  1
  Li  Li1  1  0.00000000  0.27130500  0.38554100  1
  Li  Li2  1  0.50000000  0.49518300  0.99469200  1
  Li  Li3  1  0.00000000  0.00481700  0.49469200  1
  Li  Li4  1  0.00000000  0.72869500  0.88554100  1
  Li  Li5  1  0.50000000  0.77130500  0.38554100  1
  Li  Li6  1  0.00000000  0.99518300  0.99469200  1
  Li  Li7  1  0.50000000  0.50481700  0.49469200  1
  Fe  Fe8  1  0.50000000  0.24140600  0.61416200  1
  Fe  Fe9  1  0.00000000  0.25859400  0.11416200  1
  Fe  Fe10  1  0.50000000  0.03971650  0.26194600  1
  Fe  Fe11  1  0.00000000  0.46028350  0.76194600  1
  Fe  Fe12  1  0.00000000  0.74140600  0.61416200  1
  Fe  Fe13  1  0.50000000  0.75859400  0.11416200  1
  Fe  Fe14  1  0.00000000  0.53971650  0.26194600  1
  Fe  Fe15  1  0.50000000  0.96028350  0.76194600  1
  O  O16  1  0.50000000  0.33253750  0.74997300  1
  O  O17  1  0.00000000  0.16746250  0.24997300  1
  O  O18  1  0.00000000  0.83253750  0.74997300  1
  O  O19  1  0.50000000  0.66746250  0.24997300  1
  F  F20  1  0.50000000  0.13437250  0.03411500  1
  F  F21  1  0.00000000  0.36562750  0.53411500  1
  F  F22  1  0.50000000  0.14784500  0.46459300  1
  F  F23  1  0.00000000  0.35215500  0.96459300  1
  F  F24  1  0.50000000  0.41267950  0.14228700  1
  F  F25  1  0.00000000  0.08732050  0.64228700  1
  F  F26  1  0.50000000  0.41969350  0.35269600  1
  F  F27  1  0.00000000  0.08030650  0.85269600  1
  F  F28  1  0.00000000  0.63437250  0.03411500  1
  F  F29  1  0.50000000  0.86562750  0.53411500  1
  F  F30  1  0.00000000  0.64784500  0.46459300  1
  F  F31  1  0.50000000  0.85215500  0.96459300  1
  F  F32  1  0.00000000  0.91267950  0.14228700  1
  F  F33  1  0.50000000  0.58732050  0.64228700  1
  F  F34  1  0.00000000  0.91969350  0.35269600  1
  F  F35  1  0.50000000  0.58030650  0.85269600  1
