# generated using pymatgen
data_LiNiO2
_symmetry_space_group_name_H-M   'P 1'
_cell_length_a   5.68390820
_cell_length_b   5.79574351
_cell_length_c   8.32881394
_cell_angle_alpha   90.00000000
_cell_angle_beta   90.00000000
_cell_angle_gamma   90.00000000
_symmetry_Int_Tables_number   1
_chemical_formula_structural   LiNiO2
_chemical_formula_sum   'Li8 Ni8 O16'
_cell_volume   274.37173700
_cell_formula_units_Z   8
loop_
 _symmetry_equiv_pos_site_id
 _symmetry_equiv_pos_as_xyz
  1  'x, y, z'
loop_
 _atom_site_type_symbol
 _atom_site_label
 _atom_site_symmetry_multiplicity
 _atom_site_fract_x
 _atom_site_fract_y
 _atom_site_fract_z
 _atom_site_occupancy
  Li  Li0  1  0.50000000  0.50000000  0.50000000  1
  Li  Li1  1  0.25000000  0.25000000  0.25000000  1
  Li  Li2  1  0.75000000  0.25000000  0.25000000  1
  Li  Li3  1  0.50000000  0.50000000  0.00000000  1
  Li  Li4  1  0.00000000  0.00000000  0.00000000  1
  Li  Li5  1  0.75000000  0.75000000  0.75000000  1
  Li  Li6  1  0.25000000  0.75000000  0.75000000  1
  Li  Li7  1  0.00000000  0.00000000  0.50000000  1
  Ni  Ni8  1  0.50000000  0.00000000  0.00000000  1
  Ni  Ni9  1  0.75000000  0.75000000  0.25000000  1
  Ni  Ni10  1  0.25000000  0.75000000  0.25000000  1
  Ni  Ni11  1  0.50000000  0.00000000  0.50000000  1
  Ni  Ni12  1  0.00000000  0.50000000  0.50000000  1
  Ni  Ni13  1  0.25000000  0.25000000  0.75000000  1
  Ni  Ni14  1  0.75000000  0.25000000  0.75000000  1
  Ni  Ni15  1  0.00000000  0.50000000  0.00000000  1
  O  O16  1  0.50000000  0.52784200  0.25000000  1
  O  O17  1  0.25000000  0.75000000  0.02109400  1
  O  O18  1  0.75000000  0.75000000  0.02109400  1
  O  O19  1  0.00000000  0.97215800  0.25000000  1
  O  O20  1  0.00000000  0.53098100  0.25000000  1
  O  O21  1  0.25000000  0.75000000  0.47890600  1
  O  O22  1  0.75000000  0.75000000  0.47890600  1
  O  O23  1  0.50000000  0.96901900  0.25000000  1
  O  O24  1  0.00000000  0.02784200  0.75000000  1
  O  O25  1  0.75000000  0.25000000  0.52109400  1
  O  O26  1  0.25000000  0.25000000  0.52109400  1
  O  O27  1  0.50000000  0.47215800  0.75000000  1
  O  O28  1  0.50000000  0.03098100  0.75000000  1
  O  O29  1  0.75000000  0.25000000  0.97890600  1
  O  O30  1  0.25000000  0.25000000  0.97890600  1
  O  O31  1  0.00000000  0.46901900  0.75000000  1
