# generated using pymatgen
data_LaSiNi
_symmetry_space_group_name_H-M   'P 1'
_cell_length_a   4.18165400
_cell_length_b   4.18165400
_cell_length_c   14.01972000
_cell_angle_alpha   90.00000000
_cell_angle_beta   90.00000000
_cell_angle_gamma   90.00000000
_symmetry_Int_Tables_number   1
_chemical_formula_structural   LaSiNi
_chemical_formula_sum   'La4 Si4 Ni4'
_cell_volume   245.15205092
_cell_formula_units_Z   4
loop_
 _symmetry_equiv_pos_site_id
 _symmetry_equiv_pos_as_xyz
  1  'x, y, z'
loop_
 _atom_site_type_symbol
 _atom_site_label
 _atom_site_symmetry_multiplicity
 _atom_site_fract_x
 _atom_site_fract_y
 _atom_site_fract_z
 _atom_site_occupancy
  La  La0  1  0.50000000  0.50000000  0.00178200  1
  La  La1  1  0.00000000  0.50000000  0.75178200  1
  La  La2  1  0.00000000  0.00000000  0.50178200  1
  La  La3  1  0.50000000  0.00000000  0.25178200  1
  Si  Si4  1  0.00000000  0.00000000  0.08145100  1
  Si  Si5  1  0.50000000  0.00000000  0.83145100  1
  Si  Si6  1  0.50000000  0.50000000  0.58145100  1
  Si  Si7  1  0.00000000  0.50000000  0.33145100  1
  Ni  Ni8  1  0.00000000  0.50000000  0.16276700  1
  Ni  Ni9  1  0.00000000  0.00000000  0.91276700  1
  Ni  Ni10  1  0.50000000  0.00000000  0.66276700  1
  Ni  Ni11  1  0.50000000  0.50000000  0.41276700  1
