# generated using pymatgen
data_MnCr2Ni3(PO4)6
_symmetry_space_group_name_H-M   'P 1'
_cell_length_a   8.59320219
_cell_length_b   8.59320219
_cell_length_c   20.17914764
_cell_angle_alpha   90.00000000
_cell_angle_beta   90.00000000
_cell_angle_gamma   120.00000000
_symmetry_Int_Tables_number   1
_chemical_formula_structural   MnCr2Ni3(PO4)6
_chemical_formula_sum   'Mn3 Cr6 Ni9 P18 O72'
_cell_volume   1290.45692028
_cell_formula_units_Z   3
loop_
 _symmetry_equiv_pos_site_id
 _symmetry_equiv_pos_as_xyz
  1  'x, y, z'
loop_
 _atom_site_type_symbol
 _atom_site_label
 _atom_site_symmetry_multiplicity
 _atom_site_fract_x
 _atom_site_fract_y
 _atom_site_fract_z
 _atom_site_occupancy
  Mn  Mn0  1  0.33333333  0.66666667  0.80917367  1
  Mn  Mn1  1  0.00000000  0.00000000  0.14250700  1
  Mn  Mn2  1  0.66666667  0.33333333  0.47584033  1
  Cr  Cr3  1  0.33333333  0.66666667  0.66500667  1
  Cr  Cr4  1  0.33333333  0.66666667  0.16629067  1
  Cr  Cr5  1  0.00000000  0.00000000  0.99834000  1
  Cr  Cr6  1  0.00000000  0.00000000  0.49962400  1
  Cr  Cr7  1  0.66666667  0.33333333  0.33167333  1
  Cr  Cr8  1  0.66666667  0.33333333  0.83295733  1
  Ni  Ni9  1  0.33333333  0.66666667  0.52352967  1
  Ni  Ni10  1  0.33333333  0.66666667  0.30851867  1
  Ni  Ni11  1  0.33333333  0.66666667  0.02475667  1
  Ni  Ni12  1  0.00000000  0.00000000  0.85686300  1
  Ni  Ni13  1  0.00000000  0.00000000  0.64185200  1
  Ni  Ni14  1  0.00000000  0.00000000  0.35809000  1
  Ni  Ni15  1  0.66666667  0.33333333  0.19019633  1
  Ni  Ni16  1  0.66666667  0.33333333  0.97518533  1
  Ni  Ni17  1  0.66666667  0.33333333  0.69142333  1
  P  P18  1  0.36937333  0.33449767  0.08413567  1
  P  P19  1  0.96512433  0.63062667  0.08413567  1
  P  P20  1  0.66550233  0.03487567  0.08413567  1
  P  P21  1  0.00158667  0.29573333  0.24964833  1
  P  P22  1  0.70426667  0.70585333  0.24964833  1
  P  P23  1  0.29414667  0.99841333  0.24964833  1
  P  P24  1  0.03604000  0.66783100  0.41746900  1
  P  P25  1  0.63179100  0.96396000  0.41746900  1
  P  P26  1  0.33216900  0.36820900  0.41746900  1
  P  P27  1  0.66825333  0.62906667  0.58298167  1
  P  P28  1  0.37093333  0.03918667  0.58298167  1
  P  P29  1  0.96081333  0.33174667  0.58298167  1
  P  P30  1  0.70270667  0.00116433  0.75080233  1
  P  P31  1  0.29845767  0.29729333  0.75080233  1
  P  P32  1  0.99883567  0.70154233  0.75080233  1
  P  P33  1  0.33492000  0.96240000  0.91631500  1
  P  P34  1  0.03760000  0.37252000  0.91631500  1
  P  P35  1  0.62748000  0.66508000  0.91631500  1
  O  O36  1  0.32725300  0.45793500  0.35382500  1
  O  O37  1  0.13068200  0.67274700  0.35382500  1
  O  O38  1  0.83120067  0.31487233  0.26131133  1
  O  O39  1  0.54206500  0.86931800  0.35382500  1
  O  O40  1  0.99210167  0.18887633  0.18668833  1
  O  O41  1  0.16238100  0.48762900  0.23569900  1
  O  O42  1  0.68512767  0.51632833  0.26131133  1
  O  O43  1  0.51237100  0.67475200  0.23569900  1
  O  O44  1  0.45984500  0.32523600  0.14716100  1
  O  O45  1  0.32524800  0.83761900  0.23569900  1
  O  O46  1  0.17317700  0.16151200  0.07339100  1
  O  O47  1  0.86539100  0.54015500  0.14716100  1
  O  O48  1  0.81112367  0.80322533  0.18668833  1
  O  O49  1  0.48367167  0.16879933  0.26131133  1
  O  O50  1  0.33548133  0.49421467  0.09618567  1
  O  O51  1  0.19677467  0.00789833  0.18668833  1
  O  O52  1  0.15873333  0.66451867  0.09618567  1
  O  O53  1  0.98833500  0.82682300  0.07339100  1
  O  O54  1  0.50578533  0.84126667  0.09618567  1
  O  O55  1  0.67476400  0.13460900  0.14716100  1
  O  O56  1  0.12355400  0.47349100  0.97952900  1
  O  O57  1  0.83848800  0.01166500  0.07339100  1
  O  O58  1  0.52650900  0.65006300  0.97952900  1
  O  O59  1  0.34993700  0.87644600  0.97952900  1
  O  O60  1  0.99391967  0.79126833  0.68715833  1
  O  O61  1  0.79734867  0.00608033  0.68715833  1
  O  O62  1  0.49786733  0.64820567  0.59464467  1
  O  O63  1  0.20873167  0.20265133  0.68715833  1
  O  O64  1  0.65876833  0.52220967  0.52002167  1
  O  O65  1  0.82904767  0.82096233  0.56903233  1
  O  O66  1  0.35179433  0.84966167  0.59464467  1
  O  O67  1  0.17903767  0.00808533  0.56903233  1
  O  O68  1  0.12651167  0.65856933  0.48049433  1
  O  O69  1  0.99191467  0.17095233  0.56903233  1
  O  O70  1  0.83984367  0.49484533  0.40672433  1
  O  O71  1  0.53205767  0.87348833  0.48049433  1
  O  O72  1  0.47779033  0.13655867  0.52002167  1
  O  O73  1  0.15033833  0.50213267  0.59464467  1
  O  O74  1  0.00214800  0.82754800  0.42951900  1
  O  O75  1  0.86344133  0.34123167  0.52002167  1
  O  O76  1  0.82540000  0.99785200  0.42951900  1
  O  O77  1  0.65500167  0.16015633  0.40672433  1
  O  O78  1  0.17245200  0.17460000  0.42951900  1
  O  O79  1  0.34143067  0.46794233  0.48049433  1
  O  O80  1  0.79022067  0.80682433  0.31286233  1
  O  O81  1  0.50515467  0.34499833  0.40672433  1
  O  O82  1  0.19317567  0.98339633  0.31286233  1
  O  O83  1  0.01660367  0.20977933  0.31286233  1
  O  O84  1  0.66058633  0.12460167  0.02049167  1
  O  O85  1  0.46401533  0.33941367  0.02049167  1
  O  O86  1  0.16453400  0.98153900  0.92797800  1
  O  O87  1  0.87539833  0.53598467  0.02049167  1
  O  O88  1  0.32543500  0.85554300  0.85335500  1
  O  O89  1  0.49571433  0.15429567  0.90236567  1
  O  O90  1  0.01846100  0.18299500  0.92797800  1
  O  O91  1  0.84570433  0.34141867  0.90236567  1
  O  O92  1  0.79317833  0.99190267  0.81382767  1
  O  O93  1  0.65858133  0.50428567  0.90236567  1
  O  O94  1  0.50651033  0.82817867  0.74005767  1
  O  O95  1  0.19872433  0.20682167  0.81382767  1
  O  O96  1  0.14445700  0.46989200  0.85335500  1
  O  O97  1  0.81700500  0.83546600  0.92797800  1
  O  O98  1  0.66881467  0.16088133  0.76285233  1
  O  O99  1  0.53010800  0.67456500  0.85335500  1
  O  O100  1  0.49206667  0.33118533  0.76285233  1
  O  O101  1  0.32166833  0.49348967  0.74005767  1
  O  O102  1  0.83911867  0.50793333  0.76285233  1
  O  O103  1  0.00809733  0.80127567  0.81382767  1
  O  O104  1  0.45688733  0.14015767  0.64619567  1
  O  O105  1  0.17182133  0.67833167  0.74005767  1
  O  O106  1  0.85984233  0.31672967  0.64619567  1
  O  O107  1  0.68327033  0.54311267  0.64619567  1
