# generated using pymatgen
data_Sb2(PO4)3
_symmetry_space_group_name_H-M   'P 1'
_cell_length_a   8.46702603
_cell_length_b   8.46702603
_cell_length_c   23.19039712
_cell_angle_alpha   90.00000000
_cell_angle_beta   90.00000000
_cell_angle_gamma   120.00000000
_symmetry_Int_Tables_number   1
_chemical_formula_structural   Sb2(PO4)3
_chemical_formula_sum   'Sb12 P18 O72'
_cell_volume   1439.79482017
_cell_formula_units_Z   6
loop_
 _symmetry_equiv_pos_site_id
 _symmetry_equiv_pos_as_xyz
  1  'x, y, z'
loop_
 _atom_site_type_symbol
 _atom_site_label
 _atom_site_symmetry_multiplicity
 _atom_site_fract_x
 _atom_site_fract_y
 _atom_site_fract_z
 _atom_site_occupancy
  Sb  Sb0  1  0.66666667  0.33333333  0.19101133  1
  Sb  Sb1  1  0.00000000  0.00000000  0.14232200  1
  Sb  Sb2  1  0.33333333  0.66666667  0.31871467  1
  Sb  Sb3  1  0.33333333  0.66666667  0.01461867  1
  Sb  Sb4  1  0.33333333  0.66666667  0.52434467  1
  Sb  Sb5  1  0.66666667  0.33333333  0.47565533  1
  Sb  Sb6  1  0.00000000  0.00000000  0.65204800  1
  Sb  Sb7  1  0.00000000  0.00000000  0.34795200  1
  Sb  Sb8  1  0.00000000  0.00000000  0.85767800  1
  Sb  Sb9  1  0.33333333  0.66666667  0.80898867  1
  Sb  Sb10  1  0.66666667  0.33333333  0.98538133  1
  Sb  Sb11  1  0.66666667  0.33333333  0.68128533  1
  P  P12  1  0.29209067  0.99698833  0.25213133  1
  P  P13  1  0.00301167  0.29510233  0.25213133  1
  P  P14  1  0.70489767  0.70790933  0.25213133  1
  P  P15  1  0.96176900  0.62542400  0.08120200  1
  P  P16  1  0.66365500  0.03823100  0.08120200  1
  P  P17  1  0.37457600  0.33634500  0.08120200  1
  P  P18  1  0.95875733  0.33032167  0.58546467  1
  P  P19  1  0.66967833  0.62843567  0.58546467  1
  P  P20  1  0.37156433  0.04124267  0.58546467  1
  P  P21  1  0.62843567  0.95875733  0.41453533  1
  P  P22  1  0.33032167  0.37156433  0.41453533  1
  P  P23  1  0.04124267  0.66967833  0.41453533  1
  P  P24  1  0.62542400  0.66365500  0.91879800  1
  P  P25  1  0.33634500  0.96176900  0.91879800  1
  P  P26  1  0.03823100  0.37457600  0.91879800  1
  P  P27  1  0.29510233  0.29209067  0.74786867  1
  P  P28  1  0.99698833  0.70489767  0.74786867  1
  P  P29  1  0.70790933  0.00301167  0.74786867  1
  O  O30  1  0.44426367  0.25373333  0.03364033  1
  O  O31  1  0.80946967  0.55573633  0.03364033  1
  O  O32  1  0.74626667  0.19053033  0.03364033  1
  O  O33  1  0.24681833  0.79971767  0.26920767  1
  O  O34  1  0.49967467  0.12336533  0.24875633  1
  O  O35  1  0.19931600  0.98030600  0.19416700  1
  O  O36  1  0.87663467  0.37630933  0.24875633  1
  O  O37  1  0.20028233  0.44710067  0.26920767  1
  O  O38  1  0.55289933  0.75318167  0.26920767  1
  O  O39  1  0.88567667  0.53264933  0.13916633  1
  O  O40  1  0.04297600  0.83300800  0.08457700  1
  O  O41  1  0.64697267  0.11432333  0.13916633  1
  O  O42  1  0.01969400  0.21901000  0.19416700  1
  O  O43  1  0.62369067  0.50032533  0.24875633  1
  O  O44  1  0.78099000  0.80068400  0.19416700  1
  O  O45  1  0.11376733  0.58015167  0.06412567  1
  O  O46  1  0.46638433  0.88623267  0.06412567  1
  O  O47  1  0.79003200  0.95702400  0.08457700  1
  O  O48  1  0.46735067  0.35302733  0.13916633  1
  O  O49  1  0.16699200  0.20996800  0.08457700  1
  O  O50  1  0.41984833  0.53361567  0.06412567  1
  O  O51  1  0.92040000  0.14280300  0.29969300  1
  O  O52  1  0.85719700  0.77759700  0.29969300  1
  O  O53  1  0.22240300  0.07960000  0.29969300  1
  O  O54  1  0.11093033  0.58706667  0.36697367  1
  O  O55  1  0.47613633  0.88906967  0.36697367  1
  O  O56  1  0.41293333  0.52386367  0.36697367  1
  O  O57  1  0.91348500  0.13305100  0.60254100  1
  O  O58  1  0.16634133  0.45669867  0.58208967  1
  O  O59  1  0.86598267  0.31363933  0.52750033  1
  O  O60  1  0.54330133  0.70964267  0.58208967  1
  O  O61  1  0.86694900  0.78043400  0.60254100  1
  O  O62  1  0.21956600  0.08651500  0.60254100  1
  O  O63  1  0.55234333  0.86598267  0.47249967  1
  O  O64  1  0.70964267  0.16634133  0.41791033  1
  O  O65  1  0.31363933  0.44765667  0.47249967  1
  O  O66  1  0.68636067  0.55234333  0.52750033  1
  O  O67  1  0.29035733  0.83365867  0.58208967  1
  O  O68  1  0.44765667  0.13401733  0.52750033  1
  O  O69  1  0.78043400  0.91348500  0.39745900  1
  O  O70  1  0.13305100  0.21956600  0.39745900  1
  O  O71  1  0.45669867  0.29035733  0.41791033  1
  O  O72  1  0.13401733  0.68636067  0.47249967  1
  O  O73  1  0.83365867  0.54330133  0.41791033  1
  O  O74  1  0.08651500  0.86694900  0.39745900  1
  O  O75  1  0.58706667  0.47613633  0.63302633  1
  O  O76  1  0.52386367  0.11093033  0.63302633  1
  O  O77  1  0.88906967  0.41293333  0.63302633  1
  O  O78  1  0.77759700  0.92040000  0.70030700  1
  O  O79  1  0.14280300  0.22240300  0.70030700  1
  O  O80  1  0.07960000  0.85719700  0.70030700  1
  O  O81  1  0.58015167  0.46638433  0.93587433  1
  O  O82  1  0.83300800  0.79003200  0.91542300  1
  O  O83  1  0.53264933  0.64697267  0.86083367  1
  O  O84  1  0.20996800  0.04297600  0.91542300  1
  O  O85  1  0.53361567  0.11376733  0.93587433  1
  O  O86  1  0.88623267  0.41984833  0.93587433  1
  O  O87  1  0.21901000  0.19931600  0.80583300  1
  O  O88  1  0.37630933  0.49967467  0.75124367  1
  O  O89  1  0.98030600  0.78099000  0.80583300  1
  O  O90  1  0.35302733  0.88567667  0.86083367  1
  O  O91  1  0.95702400  0.16699200  0.91542300  1
  O  O92  1  0.11432333  0.46735067  0.86083367  1
  O  O93  1  0.44710067  0.24681833  0.73079233  1
  O  O94  1  0.79971767  0.55289933  0.73079233  1
  O  O95  1  0.12336533  0.62369067  0.75124367  1
  O  O96  1  0.80068400  0.01969400  0.80583300  1
  O  O97  1  0.50032533  0.87663467  0.75124367  1
  O  O98  1  0.75318167  0.20028233  0.73079233  1
  O  O99  1  0.25373333  0.80946967  0.96635967  1
  O  O100  1  0.19053033  0.44426367  0.96635967  1
  O  O101  1  0.55573633  0.74626667  0.96635967  1
