# generated using pymatgen
data_V4O5F7
_symmetry_space_group_name_H-M   'P 1'
_cell_length_a   9.40220800
_cell_length_b   5.18121400
_cell_length_c   8.98985734
_cell_angle_alpha   90.00000000
_cell_angle_beta   108.96598854
_cell_angle_gamma   90.00000000
_symmetry_Int_Tables_number   1
_chemical_formula_structural   V4O5F7
_chemical_formula_sum   'V8 O10 F14'
_cell_volume   414.16455965
_cell_formula_units_Z   2
loop_
 _symmetry_equiv_pos_site_id
 _symmetry_equiv_pos_as_xyz
  1  'x, y, z'
loop_
 _atom_site_type_symbol
 _atom_site_label
 _atom_site_symmetry_multiplicity
 _atom_site_fract_x
 _atom_site_fract_y
 _atom_site_fract_z
 _atom_site_occupancy
  V  V0  1  0.63737950  0.84987850  0.37888700  1
  V  V1  1  0.86262050  0.34987850  0.62111300  1
  V  V2  1  0.60623250  0.39889250  0.87831200  1
  V  V3  1  0.89376750  0.89889250  0.12168800  1
  V  V4  1  0.13737950  0.34987850  0.37888700  1
  V  V5  1  0.36262050  0.84987850  0.62111300  1
  V  V6  1  0.10623250  0.89889250  0.87831200  1
  V  V7  1  0.39376750  0.39889250  0.12168800  1
  O  O8  1  0.99521850  0.16233650  0.19997800  1
  O  O9  1  0.50478150  0.66233650  0.80002200  1
  O  O10  1  0.74789100  0.59600100  0.45884000  1
  O  O11  1  0.00000000  0.78200700  0.00000000  1
  O  O12  1  0.75210900  0.09600100  0.54116000  1
  O  O13  1  0.49521850  0.66233650  0.19997800  1
  O  O14  1  0.00478150  0.16233650  0.80002200  1
  O  O15  1  0.24789100  0.09600100  0.45884000  1
  O  O16  1  0.50000000  0.28200700  0.00000000  1
  O  O17  1  0.25210900  0.59600100  0.54116000  1
  F  F18  1  0.50279500  0.16560200  0.70740600  1
  F  F19  1  0.99720500  0.66560200  0.29259400  1
  F  F20  1  0.74881800  0.96567400  0.24278400  1
  F  F21  1  0.00000000  0.29045900  0.50000000  1
  F  F22  1  0.75233400  0.57538200  0.04864600  1
  F  F23  1  0.75118200  0.46567400  0.75721600  1
  F  F24  1  0.74766600  0.07538200  0.95135400  1
  F  F25  1  0.00279500  0.66560200  0.70740600  1
  F  F26  1  0.49720500  0.16560200  0.29259400  1
  F  F27  1  0.24881800  0.46567400  0.24278400  1
  F  F28  1  0.50000000  0.79045900  0.50000000  1
  F  F29  1  0.25233400  0.07538200  0.04864600  1
  F  F30  1  0.25118200  0.96567400  0.75721600  1
  F  F31  1  0.24766600  0.57538200  0.95135400  1
