# generated using pymatgen
data_V4CrCuO12
_symmetry_space_group_name_H-M   'P 1'
_cell_length_a   10.03343133
_cell_length_b   8.99321933
_cell_length_c   5.90421530
_cell_angle_alpha   90.00000000
_cell_angle_beta   109.99212955
_cell_angle_gamma   90.00000000
_symmetry_Int_Tables_number   1
_chemical_formula_structural   V4CrCuO12
_chemical_formula_sum   'V8 Cr2 Cu2 O24'
_cell_volume   500.65018296
_cell_formula_units_Z   2
loop_
 _symmetry_equiv_pos_site_id
 _symmetry_equiv_pos_as_xyz
  1  'x, y, z'
loop_
 _atom_site_type_symbol
 _atom_site_label
 _atom_site_symmetry_multiplicity
 _atom_site_fract_x
 _atom_site_fract_y
 _atom_site_fract_z
 _atom_site_occupancy
  V  V0  1  0.19908250  0.58977850  0.98681400  1
  V  V1  1  0.80091750  0.58977850  0.01318600  1
  V  V2  1  0.20801100  0.40818800  0.50267600  1
  V  V3  1  0.79198900  0.40818800  0.49732400  1
  V  V4  1  0.69908250  0.08977850  0.98681400  1
  V  V5  1  0.30091750  0.08977850  0.01318600  1
  V  V6  1  0.70801100  0.90818800  0.50267600  1
  V  V7  1  0.29198900  0.90818800  0.49732400  1
  Cr  Cr8  1  0.00000000  0.91886000  0.00000000  1
  Cr  Cr9  1  0.50000000  0.41886000  0.00000000  1
  Cu  Cu10  1  0.00000000  0.09342250  0.50000000  1
  Cu  Cu11  1  0.50000000  0.59342250  0.50000000  1
  O  O12  1  0.38067050  0.58172150  0.07571600  1
  O  O13  1  0.61932950  0.58172150  0.92428400  1
  O  O14  1  0.13813900  0.76815000  0.96908800  1
  O  O15  1  0.86186100  0.76815000  0.03091200  1
  O  O16  1  0.39181350  0.42495050  0.63794500  1
  O  O17  1  0.60818650  0.42495050  0.36205500  1
  O  O18  1  0.14798500  0.48417600  0.19979400  1
  O  O19  1  0.85201500  0.48417600  0.80020600  1
  O  O20  1  0.13100200  0.50596800  0.69616700  1
  O  O21  1  0.86899800  0.50596800  0.30383300  1
  O  O22  1  0.15430050  0.23142750  0.48991400  1
  O  O23  1  0.84569950  0.23142750  0.51008600  1
  O  O24  1  0.88067050  0.08172150  0.07571600  1
  O  O25  1  0.11932950  0.08172150  0.92428400  1
  O  O26  1  0.63813900  0.26815000  0.96908800  1
  O  O27  1  0.36186100  0.26815000  0.03091200  1
  O  O28  1  0.89181350  0.92495050  0.63794500  1
  O  O29  1  0.10818650  0.92495050  0.36205500  1
  O  O30  1  0.64798500  0.98417600  0.19979400  1
  O  O31  1  0.35201500  0.98417600  0.80020600  1
  O  O32  1  0.63100200  0.00596800  0.69616700  1
  O  O33  1  0.36899800  0.00596800  0.30383300  1
  O  O34  1  0.65430050  0.73142750  0.48991400  1
  O  O35  1  0.34569950  0.73142750  0.51008600  1
