# generated using pymatgen
data_Ti5Mn(PO4)6
_symmetry_space_group_name_H-M   'P 1'
_cell_length_a   8.74622833
_cell_length_b   8.74622833
_cell_length_c   20.46608666
_cell_angle_alpha   90.00000000
_cell_angle_beta   90.00000000
_cell_angle_gamma   120.00000000
_symmetry_Int_Tables_number   1
_chemical_formula_structural   Ti5Mn(PO4)6
_chemical_formula_sum   'Ti15 Mn3 P18 O72'
_cell_volume   1355.83569235
_cell_formula_units_Z   3
loop_
 _symmetry_equiv_pos_site_id
 _symmetry_equiv_pos_as_xyz
  1  'x, y, z'
loop_
 _atom_site_type_symbol
 _atom_site_label
 _atom_site_symmetry_multiplicity
 _atom_site_fract_x
 _atom_site_fract_y
 _atom_site_fract_z
 _atom_site_occupancy
  Ti  Ti0  1  0.33333333  0.66666667  0.66659167  1
  Ti  Ti1  1  0.33333333  0.66666667  0.16664267  1
  Ti  Ti2  1  0.33333333  0.66666667  0.52498467  1
  Ti  Ti3  1  0.33333333  0.66666667  0.31144867  1
  Ti  Ti4  1  0.33333333  0.66666667  0.02348367  1
  Ti  Ti5  1  0.00000000  0.00000000  0.99992500  1
  Ti  Ti6  1  0.00000000  0.00000000  0.49997600  1
  Ti  Ti7  1  0.00000000  0.00000000  0.85831800  1
  Ti  Ti8  1  0.00000000  0.00000000  0.64478200  1
  Ti  Ti9  1  0.00000000  0.00000000  0.35681700  1
  Ti  Ti10  1  0.66666667  0.33333333  0.33325833  1
  Ti  Ti11  1  0.66666667  0.33333333  0.83330933  1
  Ti  Ti12  1  0.66666667  0.33333333  0.19165133  1
  Ti  Ti13  1  0.66666667  0.33333333  0.97811533  1
  Ti  Ti14  1  0.66666667  0.33333333  0.69015033  1
  Mn  Mn15  1  0.33333333  0.66666667  0.81377267  1
  Mn  Mn16  1  0.00000000  0.00000000  0.14710600  1
  Mn  Mn17  1  0.66666667  0.33333333  0.48043933  1
  P  P18  1  0.70187167  0.70249833  0.24983533  1
  P  P19  1  0.29750167  0.99937333  0.24983533  1
  P  P20  1  0.66639933  0.03941067  0.08282467  1
  P  P21  1  0.37301133  0.33360067  0.08282467  1
  P  P22  1  0.96058933  0.62698867  0.08282467  1
  P  P23  1  0.00062667  0.29812833  0.24983533  1
  P  P24  1  0.36853833  0.03583167  0.58316867  1
  P  P25  1  0.96416833  0.33270667  0.58316867  1
  P  P26  1  0.33306600  0.37274400  0.41615800  1
  P  P27  1  0.03967800  0.66693400  0.41615800  1
  P  P28  1  0.62725600  0.96032200  0.41615800  1
  P  P29  1  0.66729333  0.63146167  0.58316867  1
  P  P30  1  0.03520500  0.36916500  0.91650200  1
  P  P31  1  0.63083500  0.66604000  0.91650200  1
  P  P32  1  0.99973267  0.70607733  0.74949133  1
  P  P33  1  0.70634467  0.00026733  0.74949133  1
  P  P34  1  0.29392267  0.29365533  0.74949133  1
  P  P35  1  0.33396000  0.96479500  0.91650200  1
  O  O36  1  0.53347967  0.84349933  0.35654433  1
  O  O37  1  0.31001967  0.46652033  0.35654433  1
  O  O38  1  0.67729767  0.51285533  0.26193633  1
  O  O39  1  0.15650067  0.68998033  0.35654433  1
  O  O40  1  0.79170600  0.78443700  0.18672900  1
  O  O41  1  0.50893033  0.67295867  0.24388167  1
  O  O42  1  0.48714467  0.16444233  0.26193633  1
  O  O43  1  0.32704133  0.83597167  0.24388167  1
  O  O44  1  0.67712667  0.14451933  0.14459033  1
  O  O45  1  0.16402833  0.49106967  0.24388167  1
  O  O46  1  0.82766167  0.01737433  0.06793833  1
  O  O47  1  0.46739267  0.32287333  0.14459033  1
  O  O48  1  0.21556300  0.00726900  0.18672900  1
  O  O49  1  0.83555767  0.32270233  0.26193633  1
  O  O50  1  0.49991000  0.85059800  0.09295100  1
  O  O51  1  0.99273100  0.20829400  0.18672900  1
  O  O52  1  0.35068800  0.50009000  0.09295100  1
  O  O53  1  0.18971267  0.17233833  0.06793833  1
  O  O54  1  0.14940200  0.64931200  0.09295100  1
  O  O55  1  0.85548067  0.53260733  0.14459033  1
  O  O56  1  0.52193733  0.65882867  0.97712767  1
  O  O57  1  0.98262567  0.81028733  0.06793833  1
  O  O58  1  0.34117133  0.86310867  0.97712767  1
  O  O59  1  0.13689133  0.47806267  0.97712767  1
  O  O60  1  0.20014633  0.17683267  0.68987767  1
  O  O61  1  0.97668633  0.79985367  0.68987767  1
  O  O62  1  0.34396433  0.84618867  0.59526967  1
  O  O63  1  0.82316733  0.02331367  0.68987767  1
  O  O64  1  0.45837267  0.11777033  0.52006233  1
  O  O65  1  0.17559700  0.00629200  0.57721500  1
  O  O66  1  0.15381133  0.49777567  0.59526967  1
  O  O67  1  0.99370800  0.16930500  0.57721500  1
  O  O68  1  0.34379333  0.47785267  0.47792367  1
  O  O69  1  0.83069500  0.82440300  0.57721500  1
  O  O70  1  0.49432833  0.35070767  0.40127167  1
  O  O71  1  0.13405933  0.65620667  0.47792367  1
  O  O72  1  0.88222967  0.34060233  0.52006233  1
  O  O73  1  0.50222433  0.65603567  0.59526967  1
  O  O74  1  0.16657667  0.18393133  0.42628433  1
  O  O75  1  0.65939767  0.54162733  0.52006233  1
  O  O76  1  0.01735467  0.83342333  0.42628433  1
  O  O77  1  0.85637933  0.50567167  0.40127167  1
  O  O78  1  0.81606867  0.98264533  0.42628433  1
  O  O79  1  0.52214733  0.86594067  0.47792367  1
  O  O80  1  0.18860400  0.99216200  0.31046100  1
  O  O81  1  0.64929233  0.14362067  0.40127167  1
  O  O82  1  0.00783800  0.19644200  0.31046100  1
  O  O83  1  0.80355800  0.81139600  0.31046100  1
  O  O84  1  0.86681300  0.51016600  0.02321100  1
  O  O85  1  0.64335300  0.13318700  0.02321100  1
  O  O86  1  0.01063100  0.17952200  0.92860300  1
  O  O87  1  0.48983400  0.35664700  0.02321100  1
  O  O88  1  0.12503933  0.45110367  0.85339567  1
  O  O89  1  0.84226367  0.33962533  0.91054833  1
  O  O90  1  0.82047800  0.83110900  0.92860300  1
  O  O91  1  0.66037467  0.50263833  0.91054833  1
  O  O92  1  0.01046000  0.81118600  0.81125700  1
  O  O93  1  0.49736167  0.15773633  0.91054833  1
  O  O94  1  0.16099500  0.68404100  0.73460500  1
  O  O95  1  0.80072600  0.98954000  0.81125700  1
  O  O96  1  0.54889633  0.67393567  0.85339567  1
  O  O97  1  0.16889100  0.98936900  0.92860300  1
  O  O98  1  0.83324333  0.51726467  0.75961767  1
  O  O99  1  0.32606433  0.87496067  0.85339567  1
  O  O100  1  0.68402133  0.16675667  0.75961767  1
  O  O101  1  0.52304600  0.83900500  0.73460500  1
  O  O102  1  0.48273533  0.31597867  0.75961767  1
  O  O103  1  0.18881400  0.19927400  0.81125700  1
  O  O104  1  0.85527067  0.32549533  0.64379433  1
  O  O105  1  0.31595900  0.47695400  0.73460500  1
  O  O106  1  0.67450467  0.52977533  0.64379433  1
  O  O107  1  0.47022467  0.14472933  0.64379433  1
