# generated using pymatgen
data_Li6Mn5Fe(BO3)6
_symmetry_space_group_name_H-M   'P 1'
_cell_length_a   8.26575900
_cell_length_b   6.36526000
_cell_length_c   8.27779092
_cell_angle_alpha   90.00000000
_cell_angle_beta   119.91695000
_cell_angle_gamma   90.00000000
_symmetry_Int_Tables_number   1
_chemical_formula_structural   Li6Mn5Fe(BO3)6
_chemical_formula_sum   'Li6 Mn5 Fe1 B6 O18'
_cell_volume   377.49118056
_cell_formula_units_Z   1
loop_
 _symmetry_equiv_pos_site_id
 _symmetry_equiv_pos_as_xyz
  1  'x, y, z'
loop_
 _atom_site_type_symbol
 _atom_site_label
 _atom_site_symmetry_multiplicity
 _atom_site_fract_x
 _atom_site_fract_y
 _atom_site_fract_z
 _atom_site_occupancy
  Li  Li0  1  0.01776600  0.75017300  0.30168100  1
  Li  Li1  1  0.01776600  0.24982700  0.30168100  1
  Li  Li2  1  0.69879000  0.74959900  0.71613100  1
  Li  Li3  1  0.69879000  0.25040100  0.71613100  1
  Li  Li4  1  0.28464100  0.25035600  0.98350200  1
  Li  Li5  1  0.28464100  0.74964400  0.98350200  1
  Mn  Mn6  1  0.64050500  0.00000000  0.01205000  1
  Mn  Mn7  1  0.63937200  0.50000000  0.01194300  1
  Mn  Mn8  1  0.98808600  0.00000000  0.62876600  1
  Mn  Mn9  1  0.98789700  0.50000000  0.62756800  1
  Mn  Mn10  1  0.37142500  0.00000000  0.35916400  1
  Fe  Fe11  1  0.36649200  0.50000000  0.35962600  1
  B  B12  1  0.99969800  0.00000000  0.99980900  1
  B  B13  1  0.00246700  0.50000000  0.00006300  1
  B  B14  1  0.33342000  0.74817000  0.66586600  1
  B  B15  1  0.33342000  0.25183000  0.66586600  1
  B  B16  1  0.66548200  0.74865800  0.33356000  1
  B  B17  1  0.66548200  0.25134200  0.33356000  1
  O  O18  1  0.08403400  0.50000000  0.19463400  1
  O  O19  1  0.07743100  0.00000000  0.19312000  1
  O  O20  1  0.41945700  0.74586800  0.55815600  1
  O  O21  1  0.41945700  0.25413200  0.55815600  1
  O  O22  1  0.80614300  0.00000000  0.88424100  1
  O  O23  1  0.80889600  0.50000000  0.88824800  1
  O  O24  1  0.13999600  0.75012100  0.58005300  1
  O  O25  1  0.13999600  0.24987900  0.58005300  1
  O  O26  1  0.44069700  0.74991500  0.85915500  1
  O  O27  1  0.44069700  0.25008500  0.85915500  1
  O  O28  1  0.74815800  0.74972500  0.22212800  1
  O  O29  1  0.74815800  0.25027500  0.22212800  1
  O  O30  1  0.11547500  0.00000000  0.92195300  1
  O  O31  1  0.11585700  0.50000000  0.92001100  1
  O  O32  1  0.47207300  0.74750900  0.25220400  1
  O  O33  1  0.47207300  0.25249100  0.25220400  1
  O  O34  1  0.77762700  0.25049800  0.52696300  1
  O  O35  1  0.77762700  0.74950200  0.52696300  1
