# generated using pymatgen
data_LiMn2(CO4)2
_symmetry_space_group_name_H-M   'P 1'
_cell_length_a   6.40854117
_cell_length_b   9.24858200
_cell_length_c   11.16694083
_cell_angle_alpha   90.00000000
_cell_angle_beta   123.23006501
_cell_angle_gamma   90.00000000
_symmetry_Int_Tables_number   1
_chemical_formula_structural   LiMn2(CO4)2
_chemical_formula_sum   'Li4 Mn8 C8 O32'
_cell_volume   553.63365550
_cell_formula_units_Z   4
loop_
 _symmetry_equiv_pos_site_id
 _symmetry_equiv_pos_as_xyz
  1  'x, y, z'
loop_
 _atom_site_type_symbol
 _atom_site_label
 _atom_site_symmetry_multiplicity
 _atom_site_fract_x
 _atom_site_fract_y
 _atom_site_fract_z
 _atom_site_occupancy
  Li  Li0  1  0.97494500  0.18237800  0.60097700  1
  Li  Li1  1  0.02505500  0.68237800  0.89902300  1
  Li  Li2  1  0.97494500  0.31762200  0.10097700  1
  Li  Li3  1  0.02505500  0.81762200  0.39902300  1
  Mn  Mn4  1  0.99800900  0.55192900  0.62272800  1
  Mn  Mn5  1  0.48775300  0.92986200  0.11536400  1
  Mn  Mn6  1  0.00199100  0.05192900  0.87727200  1
  Mn  Mn7  1  0.51224700  0.42986200  0.38463600  1
  Mn  Mn8  1  0.48775300  0.57013800  0.61536400  1
  Mn  Mn9  1  0.99800900  0.94807100  0.12272800  1
  Mn  Mn10  1  0.51224700  0.07013800  0.88463600  1
  Mn  Mn11  1  0.00199100  0.44807100  0.37727200  1
  C  C12  1  0.02509000  0.85978100  0.66048700  1
  C  C13  1  0.54686400  0.63371400  0.16759400  1
  C  C14  1  0.97491000  0.35978100  0.83951300  1
  C  C15  1  0.45313600  0.13371400  0.33240600  1
  C  C16  1  0.54686400  0.86628600  0.66759400  1
  C  C17  1  0.02509000  0.64021900  0.16048700  1
  C  C18  1  0.45313600  0.36628600  0.83240600  1
  C  C19  1  0.97491000  0.14021900  0.33951300  1
  O  O20  1  0.09170500  0.98072600  0.74222500  1
  O  O21  1  0.08369800  0.73726900  0.73150500  1
  O  O22  1  0.92565800  0.87176100  0.53054100  1
  O  O23  1  0.89646000  0.38460100  0.50070200  1
  O  O24  1  0.64007900  0.51424800  0.25045900  1
  O  O25  1  0.63794800  0.75756000  0.23479800  1
  O  O26  1  0.38342900  0.62541400  0.03858400  1
  O  O27  1  0.35242800  0.09935400  0.99435200  1
  O  O28  1  0.10354000  0.88460100  0.99929800  1
  O  O29  1  0.07434200  0.37176100  0.96945900  1
  O  O30  1  0.91630200  0.23726900  0.76849500  1
  O  O31  1  0.90829500  0.48072600  0.75777500  1
  O  O32  1  0.64757200  0.59935400  0.50564800  1
  O  O33  1  0.61657100  0.12541400  0.46141600  1
  O  O34  1  0.36205200  0.25756000  0.26520200  1
  O  O35  1  0.35992100  0.01424800  0.24954100  1
  O  O36  1  0.64007900  0.98575200  0.75045900  1
  O  O37  1  0.63794800  0.74244000  0.73479800  1
  O  O38  1  0.38342900  0.87458600  0.53858400  1
  O  O39  1  0.35242800  0.40064600  0.49435200  1
  O  O40  1  0.09170500  0.51927400  0.24222500  1
  O  O41  1  0.08369800  0.76273100  0.23150500  1
  O  O42  1  0.92565800  0.62823900  0.03054100  1
  O  O43  1  0.89646000  0.11539900  0.00070200  1
  O  O44  1  0.64757200  0.90064600  0.00564800  1
  O  O45  1  0.61657100  0.37458600  0.96141600  1
  O  O46  1  0.36205200  0.24244000  0.76520200  1
  O  O47  1  0.35992100  0.48575200  0.74954100  1
  O  O48  1  0.10354000  0.61539900  0.49929800  1
  O  O49  1  0.07434200  0.12823900  0.46945900  1
  O  O50  1  0.91630200  0.26273100  0.26849500  1
  O  O51  1  0.90829500  0.01927400  0.25777500  1
