# generated using pymatgen
data_LiFe3(SnS4)2
_symmetry_space_group_name_H-M   'P 1'
_cell_length_a   7.01111600
_cell_length_b   7.31923400
_cell_length_c   10.14501800
_cell_angle_alpha   90.00000000
_cell_angle_beta   90.00000000
_cell_angle_gamma   90.00000000
_symmetry_Int_Tables_number   1
_chemical_formula_structural   LiFe3(SnS4)2
_chemical_formula_sum   'Li2 Fe6 Sn4 S16'
_cell_volume   520.60172954
_cell_formula_units_Z   2
loop_
 _symmetry_equiv_pos_site_id
 _symmetry_equiv_pos_as_xyz
  1  'x, y, z'
loop_
 _atom_site_type_symbol
 _atom_site_label
 _atom_site_symmetry_multiplicity
 _atom_site_fract_x
 _atom_site_fract_y
 _atom_site_fract_z
 _atom_site_occupancy
  Li  Li0  1  0.00000000  0.00000000  0.00951300  1
  Li  Li1  1  0.50000000  0.50000000  0.50951300  1
  Fe  Fe2  1  0.73949900  0.00000000  0.62728800  1
  Fe  Fe3  1  0.50000000  0.00000000  0.24232700  1
  Fe  Fe4  1  0.26050100  0.00000000  0.62728800  1
  Fe  Fe5  1  0.23949900  0.50000000  0.12728800  1
  Fe  Fe6  1  0.00000000  0.50000000  0.74232700  1
  Fe  Fe7  1  0.76050100  0.50000000  0.12728800  1
  Sn  Sn8  1  0.00000000  0.74732850  0.37625350  1
  Sn  Sn9  1  0.00000000  0.25267150  0.37625350  1
  Sn  Sn10  1  0.50000000  0.24732850  0.87625350  1
  Sn  Sn11  1  0.50000000  0.75267150  0.87625350  1
  S  S12  1  0.74276000  0.00000000  0.39233400  1
  S  S13  1  0.00000000  0.77726150  0.62677550  1
  S  S14  1  0.50000000  0.20987650  0.62443450  1
  S  S15  1  0.50000000  0.79012350  0.62443450  1
  S  S16  1  0.75232500  0.00000000  0.85199600  1
  S  S17  1  0.24767500  0.00000000  0.85199600  1
  S  S18  1  0.25724000  0.00000000  0.39233400  1
  S  S19  1  0.00000000  0.22273850  0.62677550  1
  S  S20  1  0.24276000  0.50000000  0.89233400  1
  S  S21  1  0.50000000  0.27726150  0.12677550  1
  S  S22  1  0.00000000  0.70987650  0.12443450  1
  S  S23  1  0.00000000  0.29012350  0.12443450  1
  S  S24  1  0.25232500  0.50000000  0.35199600  1
  S  S25  1  0.74767500  0.50000000  0.35199600  1
  S  S26  1  0.75724000  0.50000000  0.89233400  1
  S  S27  1  0.50000000  0.72273850  0.12677550  1
