# generated using pymatgen
data_Li3MnV(PO4)3
_symmetry_space_group_name_H-M   'P 1'
_cell_length_a   14.49203200
_cell_length_b   8.90843200
_cell_length_c   8.61602224
_cell_angle_alpha   90.00000000
_cell_angle_beta   123.83831313
_cell_angle_gamma   90.00000000
_symmetry_Int_Tables_number   1
_chemical_formula_structural   Li3MnV(PO4)3
_chemical_formula_sum   'Li12 Mn4 V4 P12 O48'
_cell_volume   923.92287536
_cell_formula_units_Z   4
loop_
 _symmetry_equiv_pos_site_id
 _symmetry_equiv_pos_as_xyz
  1  'x, y, z'
loop_
 _atom_site_type_symbol
 _atom_site_label
 _atom_site_symmetry_multiplicity
 _atom_site_fract_x
 _atom_site_fract_y
 _atom_site_fract_z
 _atom_site_occupancy
  Li  Li0  1  0.69033900  0.56182900  0.15667800  1
  Li  Li1  1  0.24867550  0.74818850  0.00123000  1
  Li  Li2  1  0.69033900  0.43817100  0.65667800  1
  Li  Li3  1  0.30677950  0.56556350  0.34142500  1
  Li  Li4  1  0.24867550  0.25181150  0.50123000  1
  Li  Li5  1  0.30677950  0.43443650  0.84142500  1
  Li  Li6  1  0.19033900  0.06182900  0.15667800  1
  Li  Li7  1  0.74867550  0.24818850  0.00123000  1
  Li  Li8  1  0.19033900  0.93817100  0.65667800  1
  Li  Li9  1  0.80677950  0.06556350  0.34142500  1
  Li  Li10  1  0.74867550  0.75181150  0.50123000  1
  Li  Li11  1  0.80677950  0.93443650  0.84142500  1
  Mn  Mn12  1  0.10955500  0.74744200  0.14973100  1
  Mn  Mn13  1  0.10955500  0.25255800  0.64973100  1
  Mn  Mn14  1  0.60955500  0.24744200  0.14973100  1
  Mn  Mn15  1  0.60955500  0.75255800  0.64973100  1
  V  V16  1  0.89046900  0.74605100  0.35532700  1
  V  V17  1  0.89046900  0.25394900  0.85532700  1
  V  V18  1  0.39046900  0.24605100  0.35532700  1
  V  V19  1  0.39046900  0.75394900  0.85532700  1
  P  P20  1  0.15071100  0.39904300  0.03460800  1
  P  P21  1  0.99940850  0.94713350  0.75163000  1
  P  P22  1  0.85107150  0.39968550  0.46447700  1
  P  P23  1  0.15071100  0.60095700  0.53460800  1
  P  P24  1  0.99940850  0.05286650  0.25163000  1
  P  P25  1  0.85107150  0.60031450  0.96447700  1
  P  P26  1  0.65071100  0.89904300  0.03460800  1
  P  P27  1  0.49940850  0.44713350  0.75163000  1
  P  P28  1  0.35107150  0.89968550  0.46447700  1
  P  P29  1  0.65071100  0.10095700  0.53460800  1
  P  P30  1  0.49940850  0.55286650  0.25163000  1
  P  P31  1  0.35107150  0.10031450  0.96447700  1
  O  O32  1  0.82574650  0.63860950  0.11135900  1
  O  O33  1  0.57050550  0.46300650  0.20291200  1
  O  O34  1  0.96692150  0.64912750  0.02409400  1
  O  O35  1  0.91145400  0.84857300  0.58322900  1
  O  O36  1  0.17838400  0.56705600  0.07512000  1
  O  O37  1  0.82634650  0.56975450  0.42414100  1
  O  O38  1  0.76952450  0.31664350  0.27230400  1
  O  O39  1  0.57050550  0.53699350  0.70291200  1
  O  O40  1  0.91145400  0.15142700  0.08322900  1
  O  O41  1  0.03399500  0.64811700  0.47207700  1
  O  O42  1  0.76952450  0.68335650  0.77230400  1
  O  O43  1  0.17467350  0.64013950  0.38478200  1
  O  O44  1  0.82574650  0.36139050  0.61135900  1
  O  O45  1  0.22858400  0.31283600  0.22408300  1
  O  O46  1  0.96692150  0.35087250  0.52409400  1
  O  O47  1  0.08638300  0.84913600  0.92289400  1
  O  O48  1  0.43047350  0.45325250  0.29789900  1
  O  O49  1  0.22858400  0.68716400  0.72408300  1
  O  O50  1  0.17838400  0.43294400  0.57512000  1
  O  O51  1  0.82634650  0.43024550  0.92414100  1
  O  O52  1  0.08638300  0.15086400  0.42289400  1
  O  O53  1  0.03399500  0.35188300  0.97207700  1
  O  O54  1  0.43047350  0.54674750  0.79789900  1
  O  O55  1  0.17467350  0.35986050  0.88478200  1
  O  O56  1  0.32574650  0.13860950  0.11135900  1
  O  O57  1  0.07050550  0.96300650  0.20291200  1
  O  O58  1  0.46692150  0.14912750  0.02409400  1
  O  O59  1  0.41145400  0.34857300  0.58322900  1
  O  O60  1  0.67838400  0.06705600  0.07512000  1
  O  O61  1  0.32634650  0.06975450  0.42414100  1
  O  O62  1  0.26952450  0.81664350  0.27230400  1
  O  O63  1  0.07050550  0.03699350  0.70291200  1
  O  O64  1  0.41145400  0.65142700  0.08322900  1
  O  O65  1  0.53399500  0.14811700  0.47207700  1
  O  O66  1  0.26952450  0.18335650  0.77230400  1
  O  O67  1  0.67467350  0.14013950  0.38478200  1
  O  O68  1  0.32574650  0.86139050  0.61135900  1
  O  O69  1  0.72858400  0.81283600  0.22408300  1
  O  O70  1  0.46692150  0.85087250  0.52409400  1
  O  O71  1  0.58638300  0.34913600  0.92289400  1
  O  O72  1  0.93047350  0.95325250  0.29789900  1
  O  O73  1  0.72858400  0.18716400  0.72408300  1
  O  O74  1  0.67838400  0.93294400  0.57512000  1
  O  O75  1  0.32634650  0.93024550  0.92414100  1
  O  O76  1  0.58638300  0.65086400  0.42289400  1
  O  O77  1  0.53399500  0.85188300  0.97207700  1
  O  O78  1  0.93047350  0.04674750  0.79789900  1
  O  O79  1  0.67467350  0.85986050  0.88478200  1
