# generated using pymatgen
data_Li2Cr2SiO6
_symmetry_space_group_name_H-M   'P 1'
_cell_length_a   5.87907200
_cell_length_b   8.36941800
_cell_length_c   16.89913000
_cell_angle_alpha   90.00000000
_cell_angle_beta   90.00000000
_cell_angle_gamma   90.00000000
_symmetry_Int_Tables_number   1
_chemical_formula_structural   Li2Cr2SiO6
_chemical_formula_sum   'Li16 Cr16 Si8 O48'
_cell_volume   831.51173840
_cell_formula_units_Z   8
loop_
 _symmetry_equiv_pos_site_id
 _symmetry_equiv_pos_as_xyz
  1  'x, y, z'
loop_
 _atom_site_type_symbol
 _atom_site_label
 _atom_site_symmetry_multiplicity
 _atom_site_fract_x
 _atom_site_fract_y
 _atom_site_fract_z
 _atom_site_occupancy
  Li  Li0  1  0.75000000  0.25000000  0.08983900  1
  Li  Li1  1  0.75000000  0.25000000  0.41016100  1
  Li  Li2  1  0.50000000  0.00000000  0.16016100  1
  Li  Li3  1  0.00000000  0.00000000  0.33983900  1
  Li  Li4  1  0.75000000  0.75000000  0.58983900  1
  Li  Li5  1  0.75000000  0.75000000  0.91016100  1
  Li  Li6  1  0.50000000  0.50000000  0.66016100  1
  Li  Li7  1  0.00000000  0.50000000  0.83983900  1
  Li  Li8  1  0.25000000  0.25000000  0.58983900  1
  Li  Li9  1  0.25000000  0.25000000  0.91016100  1
  Li  Li10  1  0.00000000  0.00000000  0.66016100  1
  Li  Li11  1  0.50000000  0.00000000  0.83983900  1
  Li  Li12  1  0.25000000  0.75000000  0.08983900  1
  Li  Li13  1  0.25000000  0.75000000  0.41016100  1
  Li  Li14  1  0.00000000  0.50000000  0.16016100  1
  Li  Li15  1  0.50000000  0.50000000  0.33983900  1
  Cr  Cr16  1  0.75000000  0.75000000  0.42061000  1
  Cr  Cr17  1  0.75000000  0.75000000  0.07939000  1
  Cr  Cr18  1  0.00000000  0.00000000  0.17061000  1
  Cr  Cr19  1  0.50000000  0.00000000  0.32939000  1
  Cr  Cr20  1  0.75000000  0.25000000  0.92061000  1
  Cr  Cr21  1  0.75000000  0.25000000  0.57939000  1
  Cr  Cr22  1  0.00000000  0.50000000  0.67061000  1
  Cr  Cr23  1  0.50000000  0.50000000  0.82939000  1
  Cr  Cr24  1  0.25000000  0.75000000  0.92061000  1
  Cr  Cr25  1  0.25000000  0.75000000  0.57939000  1
  Cr  Cr26  1  0.50000000  0.00000000  0.67061000  1
  Cr  Cr27  1  0.00000000  0.00000000  0.82939000  1
  Cr  Cr28  1  0.25000000  0.25000000  0.42061000  1
  Cr  Cr29  1  0.25000000  0.25000000  0.07939000  1
  Cr  Cr30  1  0.50000000  0.50000000  0.17061000  1
  Cr  Cr31  1  0.00000000  0.50000000  0.32939000  1
  Si  Si32  1  0.75000000  0.75000000  0.25000000  1
  Si  Si33  1  0.00000000  0.00000000  0.00000000  1
  Si  Si34  1  0.75000000  0.25000000  0.75000000  1
  Si  Si35  1  0.00000000  0.50000000  0.50000000  1
  Si  Si36  1  0.25000000  0.75000000  0.75000000  1
  Si  Si37  1  0.50000000  0.00000000  0.50000000  1
  Si  Si38  1  0.25000000  0.25000000  0.25000000  1
  Si  Si39  1  0.50000000  0.50000000  0.00000000  1
  O  O40  1  0.21574100  0.00850850  0.07908650  1
  O  O41  1  0.28425900  0.00850850  0.42091350  1
  O  O42  1  0.75000000  0.53785700  0.25000000  1
  O  O43  1  0.96574100  0.74149150  0.32908650  1
  O  O44  1  0.03425900  0.25850850  0.32908650  1
  O  O45  1  0.50000000  0.71214300  0.00000000  1
  O  O46  1  0.46574100  0.25850850  0.17091350  1
  O  O47  1  0.50000000  0.28785700  0.00000000  1
  O  O48  1  0.53425900  0.74149150  0.17091350  1
  O  O49  1  0.71574100  0.99149150  0.42091350  1
  O  O50  1  0.75000000  0.96214300  0.25000000  1
  O  O51  1  0.78425900  0.99149150  0.07908650  1
  O  O52  1  0.21574100  0.50850850  0.57908650  1
  O  O53  1  0.28425900  0.50850850  0.92091350  1
  O  O54  1  0.75000000  0.03785700  0.75000000  1
  O  O55  1  0.96574100  0.24149150  0.82908650  1
  O  O56  1  0.03425900  0.75850850  0.82908650  1
  O  O57  1  0.50000000  0.21214300  0.50000000  1
  O  O58  1  0.46574100  0.75850850  0.67091350  1
  O  O59  1  0.50000000  0.78785700  0.50000000  1
  O  O60  1  0.53425900  0.24149150  0.67091350  1
  O  O61  1  0.71574100  0.49149150  0.92091350  1
  O  O62  1  0.75000000  0.46214300  0.75000000  1
  O  O63  1  0.78425900  0.49149150  0.57908650  1
  O  O64  1  0.71574100  0.00850850  0.57908650  1
  O  O65  1  0.78425900  0.00850850  0.92091350  1
  O  O66  1  0.25000000  0.53785700  0.75000000  1
  O  O67  1  0.46574100  0.74149150  0.82908650  1
  O  O68  1  0.53425900  0.25850850  0.82908650  1
  O  O69  1  0.00000000  0.71214300  0.50000000  1
  O  O70  1  0.96574100  0.25850850  0.67091350  1
  O  O71  1  0.00000000  0.28785700  0.50000000  1
  O  O72  1  0.03425900  0.74149150  0.67091350  1
  O  O73  1  0.21574100  0.99149150  0.92091350  1
  O  O74  1  0.25000000  0.96214300  0.75000000  1
  O  O75  1  0.28425900  0.99149150  0.57908650  1
  O  O76  1  0.71574100  0.50850850  0.07908650  1
  O  O77  1  0.78425900  0.50850850  0.42091350  1
  O  O78  1  0.25000000  0.03785700  0.25000000  1
  O  O79  1  0.46574100  0.24149150  0.32908650  1
  O  O80  1  0.53425900  0.75850850  0.32908650  1
  O  O81  1  0.00000000  0.21214300  0.00000000  1
  O  O82  1  0.96574100  0.75850850  0.17091350  1
  O  O83  1  0.00000000  0.78785700  0.00000000  1
  O  O84  1  0.03425900  0.24149150  0.17091350  1
  O  O85  1  0.21574100  0.49149150  0.42091350  1
  O  O86  1  0.25000000  0.46214300  0.25000000  1
  O  O87  1  0.28425900  0.49149150  0.07908650  1
