# generated using pymatgen
data_CrIrO4
_symmetry_space_group_name_H-M   'P 1'
_cell_length_a   6.37555200
_cell_length_b   6.49031200
_cell_length_c   3.11761700
_cell_angle_alpha   90.00000000
_cell_angle_beta   90.00000000
_cell_angle_gamma   90.00000000
_symmetry_Int_Tables_number   1
_chemical_formula_structural   CrIrO4
_chemical_formula_sum   'Cr2 Ir2 O8'
_cell_volume   129.00487663
_cell_formula_units_Z   2
loop_
 _symmetry_equiv_pos_site_id
 _symmetry_equiv_pos_as_xyz
  1  'x, y, z'
loop_
 _atom_site_type_symbol
 _atom_site_label
 _atom_site_symmetry_multiplicity
 _atom_site_fract_x
 _atom_site_fract_y
 _atom_site_fract_z
 _atom_site_occupancy
  Cr  Cr0  1  0.00000000  0.00000000  0.50000000  1
  Cr  Cr1  1  0.50000000  0.50000000  0.50000000  1
  Ir  Ir2  1  0.50000000  0.00000000  0.00000000  1
  Ir  Ir3  1  0.00000000  0.50000000  0.00000000  1
  O  O4  1  0.80414500  0.00000000  0.00000000  1
  O  O5  1  0.50000000  0.80976450  0.50000000  1
  O  O6  1  0.19585500  0.00000000  0.00000000  1
  O  O7  1  0.50000000  0.19023550  0.50000000  1
  O  O8  1  0.30414500  0.50000000  0.00000000  1
  O  O9  1  0.00000000  0.30976450  0.50000000  1
  O  O10  1  0.69585500  0.50000000  0.00000000  1
  O  O11  1  0.00000000  0.69023550  0.50000000  1
