# generated using pymatgen
data_Li3Cr3GaO8
_symmetry_space_group_name_H-M   'P 1'
_cell_length_a   5.18233796
_cell_length_b   5.91950415
_cell_length_c   10.63268305
_cell_angle_alpha   105.77394978
_cell_angle_beta   94.69765284
_cell_angle_gamma   107.14899312
_symmetry_Int_Tables_number   1
_chemical_formula_structural   Li3Cr3GaO8
_chemical_formula_sum   'Li6 Cr6 Ga2 O16'
_cell_volume   295.24453025
_cell_formula_units_Z   2
loop_
 _symmetry_equiv_pos_site_id
 _symmetry_equiv_pos_as_xyz
  1  'x, y, z'
loop_
 _atom_site_type_symbol
 _atom_site_label
 _atom_site_symmetry_multiplicity
 _atom_site_fract_x
 _atom_site_fract_y
 _atom_site_fract_z
 _atom_site_occupancy
  Li  Li0  1  0.99420361  0.48648537  0.00123735  1
  Li  Li1  1  0.25654227  0.87479600  0.74683627  1
  Li  Li2  1  0.49589714  0.74720417  0.50181627  1
  Li  Li3  1  0.75351314  0.62801026  0.24909824  1
  Li  Li4  1  0.99681356  0.01055929  0.00319621  1
  Li  Li5  1  0.49718131  0.25077285  0.50122055  1
  Cr  Cr6  1  0.61642523  0.68357865  0.87437965  1
  Cr  Cr7  1  0.62179180  0.18913797  0.87277328  1
  Cr  Cr8  1  0.12597160  0.93788921  0.37432017  1
  Cr  Cr9  1  0.38515565  0.81623356  0.12546585  1
  Cr  Cr10  1  0.88794805  0.06772019  0.62585599  1
  Cr  Cr11  1  0.11282834  0.43307708  0.37271818  1
  Ga  Ga12  1  0.87247521  0.56097308  0.62575028  1
  Ga  Ga13  1  0.37795054  0.30617427  0.12905836  1
  O  O14  1  0.33819257  0.84355027  0.93813736  1
  O  O15  1  0.34072694  0.35563641  0.94302749  1
  O  O16  1  0.59628228  0.73316569  0.69035317  1
  O  O17  1  0.10044314  0.97009217  0.18729162  1
  O  O18  1  0.60213264  0.22268715  0.68540749  1
  O  O19  1  0.83151194  0.59686540  0.43861135  1
  O  O20  1  0.09445833  0.47932929  0.19253465  1
  O  O21  1  0.84766615  0.10625326  0.44098412  1
  O  O22  1  0.16845813  0.89962872  0.56085881  1
  O  O23  1  0.89632200  0.53463989  0.81352786  1
  O  O24  1  0.89338225  0.00653944  0.81615188  1
  O  O25  1  0.39503971  0.75680516  0.31614891  1
  O  O26  1  0.16618736  0.41087769  0.54858458  1
  O  O27  1  0.66802636  0.65204546  0.05691313  1
  O  O28  1  0.39992009  0.28391153  0.31347507  1
  O  O29  1  0.66664766  0.15551855  0.05414986  1
