# generated using pymatgen
data_Li2VCo3O8
_symmetry_space_group_name_H-M   'P 1'
_cell_length_a   5.78318236
_cell_length_b   5.78318236
_cell_length_c   13.82535886
_cell_angle_alpha   90.00000000
_cell_angle_beta   90.00000000
_cell_angle_gamma   120.00000000
_symmetry_Int_Tables_number   1
_chemical_formula_structural   Li2VCo3O8
_chemical_formula_sum   'Li6 V3 Co9 O24'
_cell_volume   400.44310389
_cell_formula_units_Z   3
loop_
 _symmetry_equiv_pos_site_id
 _symmetry_equiv_pos_as_xyz
  1  'x, y, z'
loop_
 _atom_site_type_symbol
 _atom_site_label
 _atom_site_symmetry_multiplicity
 _atom_site_fract_x
 _atom_site_fract_y
 _atom_site_fract_z
 _atom_site_occupancy
  Li  Li0  1  0.33333333  0.66666667  0.79161067  1
  Li  Li1  1  0.33333333  0.66666667  0.54172267  1
  Li  Li2  1  0.00000000  0.00000000  0.12494400  1
  Li  Li3  1  0.00000000  0.00000000  0.87505600  1
  Li  Li4  1  0.66666667  0.33333333  0.45827733  1
  Li  Li5  1  0.66666667  0.33333333  0.20838933  1
  V  V6  1  0.33333333  0.66666667  0.16666667  1
  V  V7  1  1.00000000  1.00000000  0.50000000  1
  V  V8  1  0.66666667  0.33333333  0.83333333  1
  Co  Co9  1  0.00000000  0.50000000  0.00000000  1
  Co  Co10  1  0.50000000  0.50000000  0.00000000  1
  Co  Co11  1  0.16666667  0.33333333  0.33333333  1
  Co  Co12  1  0.66666667  0.83333333  0.33333333  1
  Co  Co13  1  0.16666667  0.83333333  0.33333333  1
  Co  Co14  1  0.83333333  0.66666667  0.66666667  1
  Co  Co15  1  0.33333333  0.16666667  0.66666667  1
  Co  Co16  1  0.83333333  0.16666667  0.66666667  1
  Co  Co17  1  0.50000000  0.00000000  0.00000000  1
  O  O18  1  0.18456867  0.81543133  0.08088833  1
  O  O19  1  0.63086267  0.81543133  0.08088833  1
  O  O20  1  0.33333333  0.66666667  0.40198667  1
  O  O21  1  0.18456867  0.36913733  0.08088833  1
  O  O22  1  0.48209800  0.96419600  0.25244500  1
  O  O23  1  0.33333333  0.66666667  0.93134667  1
  O  O24  1  0.03580400  0.51790200  0.25244500  1
  O  O25  1  0.48209800  0.51790200  0.25244500  1
  O  O26  1  0.85123533  0.14876467  0.41422167  1
  O  O27  1  0.29752933  0.14876467  0.41422167  1
  O  O28  1  0.00000000  0.00000000  0.73532000  1
  O  O29  1  0.85123533  0.70247067  0.41422167  1
  O  O30  1  0.14876467  0.29752933  0.58577833  1
  O  O31  1  0.00000000  0.00000000  0.26468000  1
  O  O32  1  0.70247067  0.85123533  0.58577833  1
  O  O33  1  0.14876467  0.85123533  0.58577833  1
  O  O34  1  0.51790200  0.48209800  0.74755500  1
  O  O35  1  0.96419600  0.48209800  0.74755500  1
  O  O36  1  0.66666667  0.33333333  0.06865333  1
  O  O37  1  0.51790200  0.03580400  0.74755500  1
  O  O38  1  0.81543133  0.63086267  0.91911167  1
  O  O39  1  0.66666667  0.33333333  0.59801333  1
  O  O40  1  0.36913733  0.18456867  0.91911167  1
  O  O41  1  0.81543133  0.18456867  0.91911167  1
