# generated using pymatgen
data_Li4Fe3Cu3(SnO8)2
_symmetry_space_group_name_H-M   'P 1'
_cell_length_a   10.33319818
_cell_length_b   5.98580634
_cell_length_c   9.77258667
_cell_angle_alpha   90.00000000
_cell_angle_beta   90.29398629
_cell_angle_gamma   90.00000000
_symmetry_Int_Tables_number   1
_chemical_formula_structural   Li4Fe3Cu3(SnO8)2
_chemical_formula_sum   'Li8 Fe6 Cu6 Sn4 O32'
_cell_volume   604.45118734
_cell_formula_units_Z   2
loop_
 _symmetry_equiv_pos_site_id
 _symmetry_equiv_pos_as_xyz
  1  'x, y, z'
loop_
 _atom_site_type_symbol
 _atom_site_label
 _atom_site_symmetry_multiplicity
 _atom_site_fract_x
 _atom_site_fract_y
 _atom_site_fract_z
 _atom_site_occupancy
  Li  Li0  1  0.34348150  0.00000000  0.10221600  1
  Li  Li1  1  0.00050500  0.00000000  0.00565600  1
  Li  Li2  1  0.99501750  0.00000000  0.50801900  1
  Li  Li3  1  0.67164200  0.00000000  0.60410800  1
  Li  Li4  1  0.84348150  0.50000000  0.10221600  1
  Li  Li5  1  0.50050500  0.50000000  0.00565600  1
  Li  Li6  1  0.49501750  0.50000000  0.50801900  1
  Li  Li7  1  0.17164200  0.50000000  0.60410800  1
  Fe  Fe8  1  0.17160700  0.00000000  0.78603300  1
  Fe  Fe9  1  0.58606950  0.75187950  0.28557300  1
  Fe  Fe10  1  0.58606950  0.24812050  0.28557300  1
  Fe  Fe11  1  0.67160700  0.50000000  0.78603300  1
  Fe  Fe12  1  0.08606950  0.25187950  0.28557300  1
  Fe  Fe13  1  0.08606950  0.74812050  0.28557300  1
  Cu  Cu14  1  0.41759450  0.75290550  0.78519600  1
  Cu  Cu15  1  0.41759450  0.24709450  0.78519600  1
  Cu  Cu16  1  0.83248350  0.00000000  0.28613100  1
  Cu  Cu17  1  0.91759450  0.25290550  0.78519600  1
  Cu  Cu18  1  0.91759450  0.74709450  0.78519600  1
  Cu  Cu19  1  0.33248350  0.50000000  0.28613100  1
  Sn  Sn20  1  0.33224900  0.00000000  0.50936900  1
  Sn  Sn21  1  0.66907000  0.00000000  0.00953000  1
  Sn  Sn22  1  0.83224900  0.50000000  0.50936900  1
  Sn  Sn23  1  0.16907000  0.50000000  0.00953000  1
  O  O24  1  0.42469750  0.74604350  0.40304400  1
  O  O25  1  0.48519150  0.00000000  0.66111400  1
  O  O26  1  0.34196450  0.00000000  0.88736900  1
  O  O27  1  0.99532800  0.00000000  0.69735300  1
  O  O28  1  0.99276900  0.00000000  0.19360100  1
  O  O29  1  0.42469750  0.25395650  0.40304400  1
  O  O30  1  0.26300950  0.77144950  0.66134000  1
  O  O31  1  0.26300950  0.22855050  0.66134000  1
  O  O32  1  0.84285650  0.00000000  0.90126300  1
  O  O33  1  0.16050650  0.00000000  0.40154800  1
  O  O34  1  0.74375600  0.76499000  0.15826400  1
  O  O35  1  0.74375600  0.23501000  0.15826400  1
  O  O36  1  0.67693200  0.00000000  0.39083500  1
  O  O37  1  0.58115900  0.73645400  0.90041100  1
  O  O38  1  0.52114100  0.00000000  0.16030000  1
  O  O39  1  0.58115900  0.26354600  0.90041100  1
  O  O40  1  0.92469750  0.24604350  0.40304400  1
  O  O41  1  0.98519150  0.50000000  0.66111400  1
  O  O42  1  0.84196450  0.50000000  0.88736900  1
  O  O43  1  0.49532800  0.50000000  0.69735300  1
  O  O44  1  0.49276900  0.50000000  0.19360100  1
  O  O45  1  0.92469750  0.75395650  0.40304400  1
  O  O46  1  0.76300950  0.27144950  0.66134000  1
  O  O47  1  0.76300950  0.72855050  0.66134000  1
  O  O48  1  0.34285650  0.50000000  0.90126300  1
  O  O49  1  0.66050650  0.50000000  0.40154800  1
  O  O50  1  0.24375600  0.26499000  0.15826400  1
  O  O51  1  0.24375600  0.73501000  0.15826400  1
  O  O52  1  0.17693200  0.50000000  0.39083500  1
  O  O53  1  0.08115900  0.23645400  0.90041100  1
  O  O54  1  0.02114100  0.50000000  0.16030000  1
  O  O55  1  0.08115900  0.76354600  0.90041100  1
