# generated using pymatgen
data_FeSbO4
_symmetry_space_group_name_H-M   'P 1'
_cell_length_a   6.64028881
_cell_length_b   6.64028881
_cell_length_c   6.24657100
_cell_angle_alpha   90.00000000
_cell_angle_beta   90.00000000
_cell_angle_gamma   90.00000000
_symmetry_Int_Tables_number   1
_chemical_formula_structural   FeSbO4
_chemical_formula_sum   'Fe4 Sb4 O16'
_cell_volume   275.43277576
_cell_formula_units_Z   4
loop_
 _symmetry_equiv_pos_site_id
 _symmetry_equiv_pos_as_xyz
  1  'x, y, z'
loop_
 _atom_site_type_symbol
 _atom_site_label
 _atom_site_symmetry_multiplicity
 _atom_site_fract_x
 _atom_site_fract_y
 _atom_site_fract_z
 _atom_site_occupancy
  Fe  Fe0  1  0.00000000  0.00000000  0.49020050  1
  Fe  Fe1  1  0.00000000  0.50000000  0.24020050  1
  Fe  Fe2  1  0.50000000  0.50000000  0.99020050  1
  Fe  Fe3  1  0.50000000  0.00000000  0.74020050  1
  Sb  Sb4  1  0.50000000  0.00000000  0.25741450  1
  Sb  Sb5  1  0.50000000  0.50000000  0.50741450  1
  Sb  Sb6  1  0.00000000  0.50000000  0.75741450  1
  Sb  Sb7  1  0.00000000  0.00000000  0.00741450  1
  O  O8  1  0.00000000  0.19655850  0.24620050  1
  O  O9  1  0.30344150  0.00000000  0.49620050  1
  O  O10  1  0.19655850  0.50000000  0.99620050  1
  O  O11  1  0.50000000  0.30344150  0.74620050  1
  O  O12  1  0.00000000  0.19162350  0.75501650  1
  O  O13  1  0.30837650  0.00000000  0.00501650  1
  O  O14  1  0.69162350  0.00000000  0.00501650  1
  O  O15  1  0.50000000  0.30837650  0.25501650  1
  O  O16  1  0.50000000  0.69655850  0.74620050  1
  O  O17  1  0.80344150  0.50000000  0.99620050  1
  O  O18  1  0.69655850  0.00000000  0.49620050  1
  O  O19  1  0.00000000  0.80344150  0.24620050  1
  O  O20  1  0.50000000  0.69162350  0.25501650  1
  O  O21  1  0.80837650  0.50000000  0.50501650  1
  O  O22  1  0.19162350  0.50000000  0.50501650  1
  O  O23  1  0.00000000  0.80837650  0.75501650  1
