# generated using pymatgen
data_LiCo2(PO4)3
_symmetry_space_group_name_H-M   'P 1'
_cell_length_a   8.31577189
_cell_length_b   8.31577189
_cell_length_c   20.67415137
_cell_angle_alpha   90.00000000
_cell_angle_beta   90.00000000
_cell_angle_gamma   120.00000000
_symmetry_Int_Tables_number   1
_chemical_formula_structural   LiCo2(PO4)3
_chemical_formula_sum   'Li6 Co12 P18 O72'
_cell_volume   1238.12205125
_cell_formula_units_Z   6
loop_
 _symmetry_equiv_pos_site_id
 _symmetry_equiv_pos_as_xyz
  1  'x, y, z'
loop_
 _atom_site_type_symbol
 _atom_site_label
 _atom_site_symmetry_multiplicity
 _atom_site_fract_x
 _atom_site_fract_y
 _atom_site_fract_z
 _atom_site_occupancy
  Li  Li0  1  0.00000000  0.00000000  0.00000000  1
  Li  Li1  1  0.33333333  0.66666667  0.16666667  1
  Li  Li2  1  0.66666667  0.33333333  0.33333333  1
  Li  Li3  1  0.00000000  0.00000000  0.50000000  1
  Li  Li4  1  0.33333333  0.66666667  0.66666667  1
  Li  Li5  1  0.66666667  0.33333333  0.83333333  1
  Co  Co6  1  0.66666667  0.33333333  0.19304033  1
  Co  Co7  1  0.33333333  0.66666667  0.30695967  1
  Co  Co8  1  0.33333333  0.66666667  0.02637367  1
  Co  Co9  1  0.00000000  0.00000000  0.14029300  1
  Co  Co10  1  0.33333333  0.66666667  0.52637367  1
  Co  Co11  1  0.00000000  0.00000000  0.64029300  1
  Co  Co12  1  0.00000000  0.00000000  0.35970700  1
  Co  Co13  1  0.66666667  0.33333333  0.47362633  1
  Co  Co14  1  0.00000000  0.00000000  0.85970700  1
  Co  Co15  1  0.66666667  0.33333333  0.97362633  1
  Co  Co16  1  0.66666667  0.33333333  0.69304033  1
  Co  Co17  1  0.33333333  0.66666667  0.80695967  1
  P  P18  1  0.71565600  0.71565600  0.25000000  1
  P  P19  1  0.28434400  0.00000000  0.25000000  1
  P  P20  1  0.00000000  0.28434400  0.25000000  1
  P  P21  1  0.66666667  0.04898933  0.08333333  1
  P  P22  1  0.38232267  0.33333333  0.08333333  1
  P  P23  1  0.95101067  0.61767733  0.08333333  1
  P  P24  1  0.38232267  0.04898933  0.58333333  1
  P  P25  1  0.95101067  0.33333333  0.58333333  1
  P  P26  1  0.66666667  0.61767733  0.58333333  1
  P  P27  1  0.33333333  0.38232267  0.41666667  1
  P  P28  1  0.04898933  0.66666667  0.41666667  1
  P  P29  1  0.61767733  0.95101067  0.41666667  1
  P  P30  1  0.04898933  0.38232267  0.91666667  1
  P  P31  1  0.61767733  0.66666667  0.91666667  1
  P  P32  1  0.33333333  0.95101067  0.91666667  1
  P  P33  1  0.00000000  0.71565600  0.75000000  1
  P  P34  1  0.71565600  0.00000000  0.75000000  1
  P  P35  1  0.28434400  0.28434400  0.75000000  1
  O  O36  1  0.84792200  0.53452000  0.02014000  1
  O  O37  1  0.68659800  0.15207800  0.02014000  1
  O  O38  1  0.69214433  0.51779567  0.25232867  1
  O  O39  1  0.46548000  0.31340200  0.02014000  1
  O  O40  1  0.51779567  0.69214433  0.24767133  1
  O  O41  1  0.79881333  0.81874467  0.18680667  1
  O  O42  1  0.48220433  0.17434867  0.25232867  1
  O  O43  1  0.30785567  0.82565133  0.24767133  1
  O  O44  1  0.17434867  0.48220433  0.24767133  1
  O  O45  1  0.64673533  0.13214667  0.14652667  1
  O  O46  1  0.84101533  0.02547767  0.08100467  1
  O  O47  1  0.48541133  0.35326467  0.14652667  1
  O  O48  1  0.18125533  0.98006867  0.18680667  1
  O  O49  1  0.82565133  0.30785567  0.25232867  1
  O  O50  1  0.01993133  0.20118667  0.18680667  1
  O  O51  1  0.49231800  0.85112900  0.08566200  1
  O  O52  1  0.35881100  0.50768200  0.08566200  1
  O  O53  1  0.18446233  0.15898467  0.08100467  1
  O  O54  1  0.86785333  0.51458867  0.14652667  1
  O  O55  1  0.14887100  0.64118900  0.08566200  1
  O  O56  1  0.20118667  0.01993133  0.31319333  1
  O  O57  1  0.97452233  0.81553767  0.08100467  1
  O  O58  1  0.98006867  0.18125533  0.31319333  1
  O  O59  1  0.81874467  0.79881333  0.31319333  1
  O  O60  1  0.51458867  0.86785333  0.35347333  1
  O  O61  1  0.35326467  0.48541133  0.35347333  1
  O  O62  1  0.35881100  0.85112900  0.58566200  1
  O  O63  1  0.13214667  0.64673533  0.35347333  1
  O  O64  1  0.18446233  0.02547767  0.58100467  1
  O  O65  1  0.46548000  0.15207800  0.52014000  1
  O  O66  1  0.14887100  0.50768200  0.58566200  1
  O  O67  1  0.97452233  0.15898467  0.58100467  1
  O  O68  1  0.84101533  0.81553767  0.58100467  1
  O  O69  1  0.31340200  0.46548000  0.47986000  1
  O  O70  1  0.50768200  0.35881100  0.41433800  1
  O  O71  1  0.15207800  0.68659800  0.47986000  1
  O  O72  1  0.84792200  0.31340200  0.52014000  1
  O  O73  1  0.49231800  0.64118900  0.58566200  1
  O  O74  1  0.68659800  0.53452000  0.52014000  1
  O  O75  1  0.15898467  0.18446233  0.41899533  1
  O  O76  1  0.02547767  0.84101533  0.41899533  1
  O  O77  1  0.85112900  0.49231800  0.41433800  1
  O  O78  1  0.53452000  0.84792200  0.47986000  1
  O  O79  1  0.81553767  0.97452233  0.41899533  1
  O  O80  1  0.86785333  0.35326467  0.64652667  1
  O  O81  1  0.64118900  0.14887100  0.41433800  1
  O  O82  1  0.64673533  0.51458867  0.64652667  1
  O  O83  1  0.48541133  0.13214667  0.64652667  1
  O  O84  1  0.18125533  0.20118667  0.68680667  1
  O  O85  1  0.01993133  0.81874467  0.68680667  1
  O  O86  1  0.02547767  0.18446233  0.91899533  1
  O  O87  1  0.79881333  0.98006867  0.68680667  1
  O  O88  1  0.85112900  0.35881100  0.91433800  1
  O  O89  1  0.13214667  0.48541133  0.85347333  1
  O  O90  1  0.81553767  0.84101533  0.91899533  1
  O  O91  1  0.64118900  0.49231800  0.91433800  1
  O  O92  1  0.50768200  0.14887100  0.91433800  1
  O  O93  1  0.98006867  0.79881333  0.81319333  1
  O  O94  1  0.17434867  0.69214433  0.74767133  1
  O  O95  1  0.81874467  0.01993133  0.81319333  1
  O  O96  1  0.51458867  0.64673533  0.85347333  1
  O  O97  1  0.15898467  0.97452233  0.91899533  1
  O  O98  1  0.35326467  0.86785333  0.85347333  1
  O  O99  1  0.82565133  0.51779567  0.75232867  1
  O  O100  1  0.69214433  0.17434867  0.75232867  1
  O  O101  1  0.51779567  0.82565133  0.74767133  1
  O  O102  1  0.20118667  0.18125533  0.81319333  1
  O  O103  1  0.48220433  0.30785567  0.75232867  1
  O  O104  1  0.53452000  0.68659800  0.97986000  1
  O  O105  1  0.30785567  0.48220433  0.74767133  1
  O  O106  1  0.31340200  0.84792200  0.97986000  1
  O  O107  1  0.15207800  0.46548000  0.97986000  1
