# generated using pymatgen
data_Li4NbCo5O12
_symmetry_space_group_name_H-M   'P 1'
_cell_length_a   5.06534600
_cell_length_b   8.67792000
_cell_length_c   10.01090405
_cell_angle_alpha   90.00000000
_cell_angle_beta   96.56612465
_cell_angle_gamma   90.00000000
_symmetry_Int_Tables_number   1
_chemical_formula_structural   Li4NbCo5O12
_chemical_formula_sum   'Li8 Nb2 Co10 O24'
_cell_volume   437.15951859
_cell_formula_units_Z   2
loop_
 _symmetry_equiv_pos_site_id
 _symmetry_equiv_pos_as_xyz
  1  'x, y, z'
loop_
 _atom_site_type_symbol
 _atom_site_label
 _atom_site_symmetry_multiplicity
 _atom_site_fract_x
 _atom_site_fract_y
 _atom_site_fract_z
 _atom_site_occupancy
  Li  Li0  1  0.37471600  0.16978400  0.72368300  1
  Li  Li1  1  0.62528400  0.16978400  0.27631700  1
  Li  Li2  1  0.37471600  0.83021600  0.72368300  1
  Li  Li3  1  0.62528400  0.83021600  0.27631700  1
  Li  Li4  1  0.87471600  0.66978400  0.72368300  1
  Li  Li5  1  0.12528400  0.66978400  0.27631700  1
  Li  Li6  1  0.87471600  0.33021600  0.72368300  1
  Li  Li7  1  0.12528400  0.33021600  0.27631700  1
  Nb  Nb8  1  0.00000000  0.00000000  0.00000000  1
  Nb  Nb9  1  0.50000000  0.50000000  0.00000000  1
  Co  Co10  1  0.50000000  0.33545800  0.50000000  1
  Co  Co11  1  0.50000000  0.83347700  0.00000000  1
  Co  Co12  1  0.50000000  0.16652300  0.00000000  1
  Co  Co13  1  0.50000000  0.66454200  0.50000000  1
  Co  Co14  1  0.50000000  0.00000000  0.50000000  1
  Co  Co15  1  0.00000000  0.83545800  0.50000000  1
  Co  Co16  1  0.00000000  0.33347700  0.00000000  1
  Co  Co17  1  0.00000000  0.66652300  0.00000000  1
  Co  Co18  1  0.00000000  0.16454200  0.50000000  1
  Co  Co19  1  0.00000000  0.50000000  0.50000000  1
  O  O20  1  0.34815600  0.32778900  0.10553500  1
  O  O21  1  0.65184400  0.32778900  0.89446500  1
  O  O22  1  0.33096450  0.17715550  0.39042100  1
  O  O23  1  0.33096450  0.82284450  0.39042100  1
  O  O24  1  0.66903550  0.17715550  0.60957900  1
  O  O25  1  0.19810200  0.00000000  0.60042000  1
  O  O26  1  0.66903550  0.82284450  0.60957900  1
  O  O27  1  0.34815600  0.67221100  0.10553500  1
  O  O28  1  0.36928600  0.00000000  0.10439000  1
  O  O29  1  0.65184400  0.67221100  0.89446500  1
  O  O30  1  0.63071400  0.00000000  0.89561000  1
  O  O31  1  0.80189800  0.00000000  0.39958000  1
  O  O32  1  0.84815600  0.82778900  0.10553500  1
  O  O33  1  0.15184400  0.82778900  0.89446500  1
  O  O34  1  0.83096450  0.67715550  0.39042100  1
  O  O35  1  0.83096450  0.32284450  0.39042100  1
  O  O36  1  0.16903550  0.67715550  0.60957900  1
  O  O37  1  0.69810200  0.50000000  0.60042000  1
  O  O38  1  0.16903550  0.32284450  0.60957900  1
  O  O39  1  0.84815600  0.17221100  0.10553500  1
  O  O40  1  0.86928600  0.50000000  0.10439000  1
  O  O41  1  0.15184400  0.17221100  0.89446500  1
  O  O42  1  0.13071400  0.50000000  0.89561000  1
  O  O43  1  0.30189800  0.50000000  0.39958000  1
