# generated using pymatgen
data_LiFe4(PO4)3
_symmetry_space_group_name_H-M   'P 1'
_cell_length_a   11.83245800
_cell_length_b   12.77669600
_cell_length_c   6.61124532
_cell_angle_alpha   90.00000000
_cell_angle_beta   116.99382802
_cell_angle_gamma   90.00000000
_symmetry_Int_Tables_number   1
_chemical_formula_structural   LiFe4(PO4)3
_chemical_formula_sum   'Li4 Fe16 P12 O48'
_cell_volume   890.59760693
_cell_formula_units_Z   4
loop_
 _symmetry_equiv_pos_site_id
 _symmetry_equiv_pos_as_xyz
  1  'x, y, z'
loop_
 _atom_site_type_symbol
 _atom_site_label
 _atom_site_symmetry_multiplicity
 _atom_site_fract_x
 _atom_site_fract_y
 _atom_site_fract_z
 _atom_site_occupancy
  Li  Li0  1  0.49478550  0.50829450  0.74966000  1
  Li  Li1  1  0.49478550  0.49170550  0.24966000  1
  Li  Li2  1  0.99478550  0.00829450  0.74966000  1
  Li  Li3  1  0.99478550  0.99170550  0.24966000  1
  Fe  Fe4  1  0.21547000  0.84046000  0.62722500  1
  Fe  Fe5  1  0.21547000  0.15954000  0.12722500  1
  Fe  Fe6  1  0.50484850  0.23206450  0.75821200  1
  Fe  Fe7  1  0.47944950  0.00674150  0.53658000  1
  Fe  Fe8  1  0.50484850  0.76793550  0.25821200  1
  Fe  Fe9  1  0.47944950  0.99325850  0.03658000  1
  Fe  Fe10  1  0.78484700  0.84406600  0.86656100  1
  Fe  Fe11  1  0.78484700  0.15593400  0.36656100  1
  Fe  Fe12  1  0.71547000  0.34046000  0.62722500  1
  Fe  Fe13  1  0.71547000  0.65954000  0.12722500  1
  Fe  Fe14  1  0.00484850  0.73206450  0.75821200  1
  Fe  Fe15  1  0.97944950  0.50674150  0.53658000  1
  Fe  Fe16  1  0.00484850  0.26793550  0.25821200  1
  Fe  Fe17  1  0.97944950  0.49325850  0.03658000  1
  Fe  Fe18  1  0.28484700  0.34406600  0.86656100  1
  Fe  Fe19  1  0.28484700  0.65593400  0.36656100  1
  P  P20  1  0.22452850  0.10539650  0.62207600  1
  P  P21  1  0.22452850  0.89460350  0.12207600  1
  P  P22  1  0.50026800  0.80051600  0.75157800  1
  P  P23  1  0.50026800  0.19948400  0.25157800  1
  P  P24  1  0.77466200  0.11076300  0.87302700  1
  P  P25  1  0.77466200  0.88923700  0.37302700  1
  P  P26  1  0.72452850  0.60539650  0.62207600  1
  P  P27  1  0.72452850  0.39460350  0.12207600  1
  P  P28  1  0.00026800  0.30051600  0.75157800  1
  P  P29  1  0.00026800  0.69948400  0.25157800  1
  P  P30  1  0.27466200  0.61076300  0.87302700  1
  P  P31  1  0.27466200  0.38923700  0.37302700  1
  O  O32  1  0.21788000  0.17276400  0.80957500  1
  O  O33  1  0.15038850  0.00070950  0.58574500  1
  O  O34  1  0.21788000  0.82723600  0.30957500  1
  O  O35  1  0.15038850  0.99929050  0.08574500  1
  O  O36  1  0.34564500  0.33208500  0.60782100  1
  O  O37  1  0.37157950  0.08660050  0.69402900  1
  O  O38  1  0.40283100  0.88283900  0.76268900  1
  O  O39  1  0.34564500  0.66791500  0.10782100  1
  O  O40  1  0.54279100  0.73281300  0.96501300  1
  O  O41  1  0.45469650  0.73342750  0.53512700  1
  O  O42  1  0.37157950  0.91339950  0.19402900  1
  O  O43  1  0.40283100  0.11716100  0.26268900  1
  O  O44  1  0.59680900  0.88025100  0.73312200  1
  O  O45  1  0.62940450  0.09699450  0.81191700  1
  O  O46  1  0.54279100  0.26718700  0.46501300  1
  O  O47  1  0.45469650  0.26657250  0.03512700  1
  O  O48  1  0.66282500  0.33423400  0.89242400  1
  O  O49  1  0.59680900  0.11974900  0.23312200  1
  O  O50  1  0.62940450  0.90300550  0.31191700  1
  O  O51  1  0.66282500  0.66576600  0.39242400  1
  O  O52  1  0.84452700  0.00437100  0.90096000  1
  O  O53  1  0.78179450  0.17855250  0.68587900  1
  O  O54  1  0.84452700  0.99562900  0.40096000  1
  O  O55  1  0.78179450  0.82144750  0.18587900  1
  O  O56  1  0.71788000  0.67276400  0.80957500  1
  O  O57  1  0.65038850  0.50070950  0.58574500  1
  O  O58  1  0.71788000  0.32723600  0.30957500  1
  O  O59  1  0.65038850  0.49929050  0.08574500  1
  O  O60  1  0.84564500  0.83208500  0.60782100  1
  O  O61  1  0.87157950  0.58660050  0.69402900  1
  O  O62  1  0.90283100  0.38283900  0.76268900  1
  O  O63  1  0.84564500  0.16791500  0.10782100  1
  O  O64  1  0.04279100  0.23281300  0.96501300  1
  O  O65  1  0.95469650  0.23342750  0.53512700  1
  O  O66  1  0.87157950  0.41339950  0.19402900  1
  O  O67  1  0.90283100  0.61716100  0.26268900  1
  O  O68  1  0.09680900  0.38025100  0.73312200  1
  O  O69  1  0.12940450  0.59699450  0.81191700  1
  O  O70  1  0.04279100  0.76718700  0.46501300  1
  O  O71  1  0.95469650  0.76657250  0.03512700  1
  O  O72  1  0.16282500  0.83423400  0.89242400  1
  O  O73  1  0.09680900  0.61974900  0.23312200  1
  O  O74  1  0.12940450  0.40300550  0.31191700  1
  O  O75  1  0.16282500  0.16576600  0.39242400  1
  O  O76  1  0.34452700  0.50437100  0.90096000  1
  O  O77  1  0.28179450  0.67855250  0.68587900  1
  O  O78  1  0.34452700  0.49562900  0.40096000  1
  O  O79  1  0.28179450  0.32144750  0.18587900  1
