# generated using pymatgen
data_LiVF4
_symmetry_space_group_name_H-M   'P 1'
_cell_length_a   10.48448600
_cell_length_b   9.29927600
_cell_length_c   7.19699645
_cell_angle_alpha   90.00000000
_cell_angle_beta   109.33035309
_cell_angle_gamma   90.00000000
_symmetry_Int_Tables_number   1
_chemical_formula_structural   LiVF4
_chemical_formula_sum   'Li8 V8 F32'
_cell_volume   662.13621625
_cell_formula_units_Z   8
loop_
 _symmetry_equiv_pos_site_id
 _symmetry_equiv_pos_as_xyz
  1  'x, y, z'
loop_
 _atom_site_type_symbol
 _atom_site_label
 _atom_site_symmetry_multiplicity
 _atom_site_fract_x
 _atom_site_fract_y
 _atom_site_fract_z
 _atom_site_occupancy
  Li  Li0  1  0.77665900  0.50000000  0.39213200  1
  Li  Li1  1  0.00000000  0.25247400  0.00000000  1
  Li  Li2  1  0.00000000  0.74752600  0.00000000  1
  Li  Li3  1  0.22334100  0.50000000  0.60786800  1
  Li  Li4  1  0.27665900  0.00000000  0.39213200  1
  Li  Li5  1  0.50000000  0.75247400  0.00000000  1
  Li  Li6  1  0.50000000  0.24752600  0.00000000  1
  Li  Li7  1  0.72334100  0.00000000  0.60786800  1
  V  V8  1  0.71112000  0.50000000  0.86425600  1
  V  V9  1  0.00000000  0.19057900  0.50000000  1
  V  V10  1  0.00000000  0.80942100  0.50000000  1
  V  V11  1  0.28888000  0.50000000  0.13574400  1
  V  V12  1  0.21112000  0.00000000  0.86425600  1
  V  V13  1  0.50000000  0.69057900  0.50000000  1
  V  V14  1  0.50000000  0.30942100  0.50000000  1
  V  V15  1  0.78888000  0.00000000  0.13574400  1
  F  F16  1  0.63752700  0.50000000  0.54839200  1
  F  F17  1  0.84146350  0.35416550  0.88766700  1
  F  F18  1  0.84146350  0.64583450  0.88766700  1
  F  F19  1  0.69445600  0.50000000  0.11779900  1
  F  F20  1  0.86660750  0.67070750  0.47952100  1
  F  F21  1  0.86660750  0.32929250  0.47952100  1
  F  F22  1  0.05003400  0.15004000  0.78373400  1
  F  F23  1  0.05003400  0.84996000  0.78373400  1
  F  F24  1  0.94996600  0.15004000  0.21626600  1
  F  F25  1  0.94996600  0.84996000  0.21626600  1
  F  F26  1  0.13339250  0.67070750  0.52047900  1
  F  F27  1  0.13339250  0.32929250  0.52047900  1
  F  F28  1  0.30554400  0.50000000  0.88220100  1
  F  F29  1  0.15853650  0.35416550  0.11233300  1
  F  F30  1  0.15853650  0.64583450  0.11233300  1
  F  F31  1  0.36247300  0.50000000  0.45160800  1
  F  F32  1  0.13752700  0.00000000  0.54839200  1
  F  F33  1  0.34146350  0.85416550  0.88766700  1
  F  F34  1  0.34146350  0.14583450  0.88766700  1
  F  F35  1  0.19445600  0.00000000  0.11779900  1
  F  F36  1  0.36660750  0.17070750  0.47952100  1
  F  F37  1  0.36660750  0.82929250  0.47952100  1
  F  F38  1  0.55003400  0.65004000  0.78373400  1
  F  F39  1  0.55003400  0.34996000  0.78373400  1
  F  F40  1  0.44996600  0.65004000  0.21626600  1
  F  F41  1  0.44996600  0.34996000  0.21626600  1
  F  F42  1  0.63339250  0.17070750  0.52047900  1
  F  F43  1  0.63339250  0.82929250  0.52047900  1
  F  F44  1  0.80554400  0.00000000  0.88220100  1
  F  F45  1  0.65853650  0.85416550  0.11233300  1
  F  F46  1  0.65853650  0.14583450  0.11233300  1
  F  F47  1  0.86247300  0.00000000  0.45160800  1
