# generated using pymatgen
data_Co7(SbO6)2
_symmetry_space_group_name_H-M   'P 1'
_cell_length_a   8.68012200
_cell_length_b   8.73789000
_cell_length_c   13.56915894
_cell_angle_alpha   90.00000000
_cell_angle_beta   107.30587801
_cell_angle_gamma   90.00000000
_symmetry_Int_Tables_number   1
_chemical_formula_structural   Co7(SbO6)2
_chemical_formula_sum   'Co28 Sb8 O48'
_cell_volume   982.57572750
_cell_formula_units_Z   4
loop_
 _symmetry_equiv_pos_site_id
 _symmetry_equiv_pos_as_xyz
  1  'x, y, z'
loop_
 _atom_site_type_symbol
 _atom_site_label
 _atom_site_symmetry_multiplicity
 _atom_site_fract_x
 _atom_site_fract_y
 _atom_site_fract_z
 _atom_site_occupancy
  Co  Co0  1  0.15911200  0.86124100  0.07885600  1
  Co  Co1  1  0.84088800  0.86124100  0.42114400  1
  Co  Co2  1  0.15911200  0.13875900  0.57885600  1
  Co  Co3  1  0.50000000  0.85848700  0.75000000  1
  Co  Co4  1  0.42243200  0.75809300  0.33931800  1
  Co  Co5  1  0.84088800  0.13875900  0.92114400  1
  Co  Co6  1  0.57756800  0.24190700  0.66068200  1
  Co  Co7  1  0.42243200  0.24190700  0.83931800  1
  Co  Co8  1  0.50000000  0.00000000  0.00000000  1
  Co  Co9  1  0.50000000  0.14151300  0.25000000  1
  Co  Co10  1  0.75000000  0.75000000  0.00000000  1
  Co  Co11  1  0.57756800  0.75809300  0.16068200  1
  Co  Co12  1  0.50000000  0.00000000  0.50000000  1
  Co  Co13  1  0.75000000  0.25000000  0.50000000  1
  Co  Co14  1  0.65911200  0.36124100  0.07885600  1
  Co  Co15  1  0.34088800  0.36124100  0.42114400  1
  Co  Co16  1  0.65911200  0.63875900  0.57885600  1
  Co  Co17  1  0.00000000  0.35848700  0.75000000  1
  Co  Co18  1  0.92243200  0.25809300  0.33931800  1
  Co  Co19  1  0.34088800  0.63875900  0.92114400  1
  Co  Co20  1  0.07756800  0.74190700  0.66068200  1
  Co  Co21  1  0.92243200  0.74190700  0.83931800  1
  Co  Co22  1  0.00000000  0.50000000  0.00000000  1
  Co  Co23  1  0.00000000  0.64151300  0.25000000  1
  Co  Co24  1  0.25000000  0.25000000  0.00000000  1
  Co  Co25  1  0.07756800  0.25809300  0.16068200  1
  Co  Co26  1  0.00000000  0.50000000  0.50000000  1
  Co  Co27  1  0.25000000  0.75000000  0.50000000  1
  Sb  Sb28  1  0.17286200  0.99289100  0.83567000  1
  Sb  Sb29  1  0.82713800  0.00710900  0.16433000  1
  Sb  Sb30  1  0.17286200  0.00710900  0.33567000  1
  Sb  Sb31  1  0.82713800  0.99289100  0.66433000  1
  Sb  Sb32  1  0.67286200  0.49289100  0.83567000  1
  Sb  Sb33  1  0.32713800  0.50710900  0.16433000  1
  Sb  Sb34  1  0.67286200  0.50710900  0.33567000  1
  Sb  Sb35  1  0.32713800  0.49289100  0.66433000  1
  O  O36  1  0.48417050  0.76540450  0.49486700  1
  O  O37  1  0.07293150  0.99193050  0.67508700  1
  O  O38  1  0.65752000  0.26424700  0.82666800  1
  O  O39  1  0.75574650  0.00021250  0.51055200  1
  O  O40  1  0.34248000  0.26424700  0.67333200  1
  O  O41  1  0.48417050  0.23459550  0.99486700  1
  O  O42  1  0.75574650  0.99978750  0.01055200  1
  O  O43  1  0.32385700  0.27725500  0.16444400  1
  O  O44  1  0.60034800  0.00150900  0.16814700  1
  O  O45  1  0.39965200  0.99849100  0.83185300  1
  O  O46  1  0.24425350  0.00021250  0.98944800  1
  O  O47  1  0.51582950  0.76540450  0.00513300  1
  O  O48  1  0.65752000  0.73575300  0.32666800  1
  O  O49  1  0.39965200  0.00150900  0.33185300  1
  O  O50  1  0.24425350  0.99978750  0.48944800  1
  O  O51  1  0.34248000  0.73575300  0.17333200  1
  O  O52  1  0.07293150  0.00806950  0.17508700  1
  O  O53  1  0.92706850  0.00806950  0.32491300  1
  O  O54  1  0.67614300  0.27725500  0.33555600  1
  O  O55  1  0.32385700  0.72274500  0.66444400  1
  O  O56  1  0.92706850  0.99193050  0.82491300  1
  O  O57  1  0.51582950  0.23459550  0.50513300  1
  O  O58  1  0.60034800  0.99849100  0.66814700  1
  O  O59  1  0.67614300  0.72274500  0.83555600  1
  O  O60  1  0.98417050  0.26540450  0.49486700  1
  O  O61  1  0.57293150  0.49193050  0.67508700  1
  O  O62  1  0.15752000  0.76424700  0.82666800  1
  O  O63  1  0.25574650  0.50021250  0.51055200  1
  O  O64  1  0.84248000  0.76424700  0.67333200  1
  O  O65  1  0.98417050  0.73459550  0.99486700  1
  O  O66  1  0.25574650  0.49978750  0.01055200  1
  O  O67  1  0.82385700  0.77725500  0.16444400  1
  O  O68  1  0.10034800  0.50150900  0.16814700  1
  O  O69  1  0.89965200  0.49849100  0.83185300  1
  O  O70  1  0.74425350  0.50021250  0.98944800  1
  O  O71  1  0.01582950  0.26540450  0.00513300  1
  O  O72  1  0.15752000  0.23575300  0.32666800  1
  O  O73  1  0.89965200  0.50150900  0.33185300  1
  O  O74  1  0.74425350  0.49978750  0.48944800  1
  O  O75  1  0.84248000  0.23575300  0.17333200  1
  O  O76  1  0.57293150  0.50806950  0.17508700  1
  O  O77  1  0.42706850  0.50806950  0.32491300  1
  O  O78  1  0.17614300  0.77725500  0.33555600  1
  O  O79  1  0.82385700  0.22274500  0.66444400  1
  O  O80  1  0.42706850  0.49193050  0.82491300  1
  O  O81  1  0.01582950  0.73459550  0.50513300  1
  O  O82  1  0.10034800  0.49849100  0.66814700  1
  O  O83  1  0.17614300  0.22274500  0.83555600  1
