# generated using pymatgen
data_Li5Cu5(SnO6)2
_symmetry_space_group_name_H-M   'P 1'
_cell_length_a   5.62004400
_cell_length_b   8.70409200
_cell_length_c   9.99936517
_cell_angle_alpha   90.00000000
_cell_angle_beta   92.11333213
_cell_angle_gamma   90.00000000
_symmetry_Int_Tables_number   1
_chemical_formula_structural   Li5Cu5(SnO6)2
_chemical_formula_sum   'Li10 Cu10 Sn4 O24'
_cell_volume   488.81005056
_cell_formula_units_Z   2
loop_
 _symmetry_equiv_pos_site_id
 _symmetry_equiv_pos_as_xyz
  1  'x, y, z'
loop_
 _atom_site_type_symbol
 _atom_site_label
 _atom_site_symmetry_multiplicity
 _atom_site_fract_x
 _atom_site_fract_y
 _atom_site_fract_z
 _atom_site_occupancy
  Li  Li0  1  0.24403600  0.92190500  0.25456700  1
  Li  Li1  1  0.22817800  0.08113300  0.74033600  1
  Li  Li2  1  0.75596400  0.92190500  0.74543300  1
  Li  Li3  1  0.77182200  0.08113300  0.25966400  1
  Li  Li4  1  0.50000000  0.40612100  0.50000000  1
  Li  Li5  1  0.74403600  0.42190500  0.25456700  1
  Li  Li6  1  0.72817800  0.58113300  0.74033600  1
  Li  Li7  1  0.25596400  0.42190500  0.74543300  1
  Li  Li8  1  0.27182200  0.58113300  0.25966400  1
  Li  Li9  1  0.00000000  0.90612100  0.50000000  1
  Cu  Cu10  1  0.50000000  0.58224300  0.00000000  1
  Cu  Cu11  1  0.73401600  0.25496200  0.74548700  1
  Cu  Cu12  1  0.26598400  0.25496200  0.25451300  1
  Cu  Cu13  1  0.50000000  0.91426100  0.00000000  1
  Cu  Cu14  1  0.50000000  0.08701900  0.50000000  1
  Cu  Cu15  1  0.00000000  0.08224300  0.00000000  1
  Cu  Cu16  1  0.23401600  0.75496200  0.74548700  1
  Cu  Cu17  1  0.76598400  0.75496200  0.25451300  1
  Cu  Cu18  1  0.00000000  0.41426100  0.00000000  1
  Cu  Cu19  1  0.00000000  0.58701900  0.50000000  1
  Sn  Sn20  1  0.50000000  0.74666900  0.50000000  1
  Sn  Sn21  1  0.50000000  0.24843600  0.00000000  1
  Sn  Sn22  1  0.00000000  0.24666900  0.50000000  1
  Sn  Sn23  1  0.00000000  0.74843600  0.00000000  1
  O  O24  1  0.87552550  0.09783650  0.63988500  1
  O  O25  1  0.12447450  0.09783650  0.36011500  1
  O  O26  1  0.34538000  0.75028700  0.09949400  1
  O  O27  1  0.65462000  0.75028700  0.90050600  1
  O  O28  1  0.37466150  0.92435350  0.61756700  1
  O  O29  1  0.62533850  0.92435350  0.38243300  1
  O  O30  1  0.38846600  0.07515000  0.12334400  1
  O  O31  1  0.61153400  0.07515000  0.87665600  1
  O  O32  1  0.33956650  0.24071550  0.60493100  1
  O  O33  1  0.66043350  0.24071550  0.39506900  1
  O  O34  1  0.90060500  0.91128200  0.13657500  1
  O  O35  1  0.09939500  0.91128200  0.86342500  1
  O  O36  1  0.37552550  0.59783650  0.63988500  1
  O  O37  1  0.62447450  0.59783650  0.36011500  1
  O  O38  1  0.84538000  0.25028700  0.09949400  1
  O  O39  1  0.15462000  0.25028700  0.90050600  1
  O  O40  1  0.87466150  0.42435350  0.61756700  1
  O  O41  1  0.12533850  0.42435350  0.38243300  1
  O  O42  1  0.88846600  0.57515000  0.12334400  1
  O  O43  1  0.11153400  0.57515000  0.87665600  1
  O  O44  1  0.83956650  0.74071550  0.60493100  1
  O  O45  1  0.16043350  0.74071550  0.39506900  1
  O  O46  1  0.40060500  0.41128200  0.13657500  1
  O  O47  1  0.59939500  0.41128200  0.86342500  1
