# generated using pymatgen
data_Li4Co3Sb5O16
_symmetry_space_group_name_H-M   'P 1'
_cell_length_a   10.78321541
_cell_length_b   6.19136299
_cell_length_c   10.38939176
_cell_angle_alpha   90.00000000
_cell_angle_beta   90.46719466
_cell_angle_gamma   90.00000000
_symmetry_Int_Tables_number   1
_chemical_formula_structural   Li4Co3Sb5O16
_chemical_formula_sum   'Li8 Co6 Sb10 O32'
_cell_volume   693.60183340
_cell_formula_units_Z   2
loop_
 _symmetry_equiv_pos_site_id
 _symmetry_equiv_pos_as_xyz
  1  'x, y, z'
loop_
 _atom_site_type_symbol
 _atom_site_label
 _atom_site_symmetry_multiplicity
 _atom_site_fract_x
 _atom_site_fract_y
 _atom_site_fract_z
 _atom_site_occupancy
  Li  Li0  1  0.66260950  0.00000000  0.89976900  1
  Li  Li1  1  0.99005975  0.00000000  0.98405300  1
  Li  Li2  1  0.50065150  0.50000000  0.50418900  1
  Li  Li3  1  0.82097525  0.50000000  0.37861900  1
  Li  Li4  1  0.16260950  0.50000000  0.89976900  1
  Li  Li5  1  0.49005975  0.50000000  0.98405300  1
  Li  Li6  1  0.00065150  0.00000000  0.50418900  1
  Li  Li7  1  0.32097525  0.00000000  0.37861900  1
  Co  Co8  1  0.82583850  0.00000000  0.20969300  1
  Co  Co9  1  0.92105875  0.25359025  0.72014200  1
  Co  Co10  1  0.92105875  0.74640975  0.72014200  1
  Co  Co11  1  0.32583850  0.50000000  0.20969300  1
  Co  Co12  1  0.42105875  0.75359025  0.72014200  1
  Co  Co13  1  0.42105875  0.24640975  0.72014200  1
  Sb  Sb14  1  0.68065500  0.00000000  0.51972400  1
  Sb  Sb15  1  0.67396175  0.50000000  0.72540000  1
  Sb  Sb16  1  0.84658575  0.50000000  0.97832800  1
  Sb  Sb17  1  0.58069450  0.75249700  0.20970800  1
  Sb  Sb18  1  0.58069450  0.24750300  0.20970800  1
  Sb  Sb19  1  0.18065500  0.50000000  0.51972400  1
  Sb  Sb20  1  0.17396175  0.00000000  0.72540000  1
  Sb  Sb21  1  0.34658575  0.00000000  0.97832800  1
  Sb  Sb22  1  0.08069450  0.25249700  0.20970800  1
  Sb  Sb23  1  0.08069450  0.74750300  0.20970800  1
  O  O24  1  0.99980725  0.50000000  0.30759900  1
  O  O25  1  0.65265475  0.00000000  0.10079300  1
  O  O26  1  0.50254350  0.50000000  0.31282200  1
  O  O27  1  0.51087575  0.50000000  0.81166800  1
  O  O28  1  0.64554375  0.50000000  0.09662600  1
  O  O29  1  0.84712175  0.00000000  0.60535900  1
  O  O30  1  0.82850425  0.50000000  0.62220100  1
  O  O31  1  0.98442025  0.50000000  0.85222700  1
  O  O32  1  0.59407400  0.73395650  0.61383400  1
  O  O33  1  0.59407400  0.26604350  0.61383400  1
  O  O34  1  0.73532050  0.75975200  0.30965400  1
  O  O35  1  0.73532050  0.24024800  0.30965400  1
  O  O36  1  0.75616925  0.28062775  0.85050600  1
  O  O37  1  0.75616925  0.71937225  0.85050600  1
  O  O38  1  0.92601250  0.23378850  0.09554900  1
  O  O39  1  0.92601250  0.76621150  0.09554900  1
  O  O40  1  0.49980725  0.00000000  0.30759900  1
  O  O41  1  0.15265475  0.50000000  0.10079300  1
  O  O42  1  0.00254350  0.00000000  0.31282200  1
  O  O43  1  0.01087575  0.00000000  0.81166800  1
  O  O44  1  0.14554375  0.00000000  0.09662600  1
  O  O45  1  0.34712175  0.50000000  0.60535900  1
  O  O46  1  0.32850425  0.00000000  0.62220100  1
  O  O47  1  0.48442025  0.00000000  0.85222700  1
  O  O48  1  0.09407400  0.23395650  0.61383400  1
  O  O49  1  0.09407400  0.76604350  0.61383400  1
  O  O50  1  0.23532050  0.25975200  0.30965400  1
  O  O51  1  0.23532050  0.74024800  0.30965400  1
  O  O52  1  0.25616925  0.78062775  0.85050600  1
  O  O53  1  0.25616925  0.21937225  0.85050600  1
  O  O54  1  0.42601250  0.73378850  0.09554900  1
  O  O55  1  0.42601250  0.26621150  0.09554900  1
