# generated using pymatgen
data_Mn2FeAg2(PO4)3
_symmetry_space_group_name_H-M   'P 1'
_cell_length_a   11.24158600
_cell_length_b   12.17974000
_cell_length_c   9.62652166
_cell_angle_alpha   90.00000000
_cell_angle_beta   112.32258204
_cell_angle_gamma   90.00000000
_symmetry_Int_Tables_number   1
_chemical_formula_structural   Mn2FeAg2(PO4)3
_chemical_formula_sum   'Mn8 Fe4 Ag8 P12 O48'
_cell_volume   1219.28418859
_cell_formula_units_Z   4
loop_
 _symmetry_equiv_pos_site_id
 _symmetry_equiv_pos_as_xyz
  1  'x, y, z'
loop_
 _atom_site_type_symbol
 _atom_site_label
 _atom_site_symmetry_multiplicity
 _atom_site_fract_x
 _atom_site_fract_y
 _atom_site_fract_z
 _atom_site_occupancy
  Mn  Mn0  1  0.22453700  0.81111800  0.90141000  1
  Mn  Mn1  1  0.50000000  0.12377600  0.00000000  1
  Mn  Mn2  1  0.77546300  0.81111800  0.09859000  1
  Mn  Mn3  1  0.50000000  0.97322200  0.50000000  1
  Mn  Mn4  1  0.72453700  0.31111800  0.90141000  1
  Mn  Mn5  1  0.00000000  0.62377600  0.00000000  1
  Mn  Mn6  1  0.27546300  0.31111800  0.09859000  1
  Mn  Mn7  1  0.00000000  0.47322200  0.50000000  1
  Fe  Fe8  1  0.68506800  0.69320700  0.29660900  1
  Fe  Fe9  1  0.31493200  0.69320700  0.70339100  1
  Fe  Fe10  1  0.18506800  0.19320700  0.29660900  1
  Fe  Fe11  1  0.81493200  0.19320700  0.70339100  1
  Ag  Ag12  1  0.50000000  0.59180200  0.00000000  1
  Ag  Ag13  1  0.36101250  0.96922550  0.71199300  1
  Ag  Ag14  1  0.50000000  0.39237800  0.50000000  1
  Ag  Ag15  1  0.63898750  0.96922550  0.28800700  1
  Ag  Ag16  1  0.00000000  0.09180200  0.00000000  1
  Ag  Ag17  1  0.86101250  0.46922550  0.71199300  1
  Ag  Ag18  1  0.00000000  0.89237800  0.50000000  1
  Ag  Ag19  1  0.13898750  0.46922550  0.28800700  1
  P  P20  1  0.60838200  0.80601800  0.77770100  1
  P  P21  1  0.50000000  0.35079100  0.00000000  1
  P  P22  1  0.39161800  0.80601800  0.22229900  1
  P  P23  1  0.60387250  0.14433350  0.36784000  1
  P  P24  1  0.50000000  0.65970900  0.50000000  1
  P  P25  1  0.39612750  0.14433350  0.63216000  1
  P  P26  1  0.10838200  0.30601800  0.77770100  1
  P  P27  1  0.00000000  0.85079100  0.00000000  1
  P  P28  1  0.89161800  0.30601800  0.22229900  1
  P  P29  1  0.10387250  0.64433350  0.36784000  1
  P  P30  1  0.00000000  0.15970900  0.50000000  1
  P  P31  1  0.89612750  0.64433350  0.63216000  1
  O  O32  1  0.61368450  0.26103650  0.02779100  1
  O  O33  1  0.20523450  0.16672850  0.11644700  1
  O  O34  1  0.51923350  0.76822950  0.20861100  1
  O  O35  1  0.25748950  0.97546950  0.95430900  1
  O  O36  1  0.49270250  0.41806650  0.86375900  1
  O  O37  1  0.38360800  0.98746200  0.97656300  1
  O  O38  1  0.61639200  0.98746200  0.02343700  1
  O  O39  1  0.50729750  0.41806650  0.13624100  1
  O  O40  1  0.74251050  0.97546950  0.04569100  1
  O  O41  1  0.60657700  0.73852600  0.61929400  1
  O  O42  1  0.48076650  0.76822950  0.79138900  1
  O  O43  1  0.79476550  0.16672850  0.88355300  1
  O  O44  1  0.22830850  0.83476050  0.69772600  1
  O  O45  1  0.49062100  0.23680300  0.68251200  1
  O  O46  1  0.38631550  0.26103650  0.97220900  1
  O  O47  1  0.34232650  0.11891050  0.46173900  1
  O  O48  1  0.57494400  0.59749100  0.42235500  1
  O  O49  1  0.41459700  0.92677500  0.28858100  1
  O  O50  1  0.58540300  0.92677500  0.71141900  1
  O  O51  1  0.42505600  0.59749100  0.57764500  1
  O  O52  1  0.65767350  0.11891050  0.53826100  1
  O  O53  1  0.50937900  0.23680300  0.31748800  1
  O  O54  1  0.77169150  0.83476050  0.30227400  1
  O  O55  1  0.39342300  0.73852600  0.38070600  1
  O  O56  1  0.11368450  0.76103650  0.02779100  1
  O  O57  1  0.70523450  0.66672850  0.11644700  1
  O  O58  1  0.01923350  0.26822950  0.20861100  1
  O  O59  1  0.75748950  0.47546950  0.95430900  1
  O  O60  1  0.99270250  0.91806650  0.86375900  1
  O  O61  1  0.88360800  0.48746200  0.97656300  1
  O  O62  1  0.11639200  0.48746200  0.02343700  1
  O  O63  1  0.00729750  0.91806650  0.13624100  1
  O  O64  1  0.24251050  0.47546950  0.04569100  1
  O  O65  1  0.10657700  0.23852600  0.61929400  1
  O  O66  1  0.98076650  0.26822950  0.79138900  1
  O  O67  1  0.29476550  0.66672850  0.88355300  1
  O  O68  1  0.72830850  0.33476050  0.69772600  1
  O  O69  1  0.99062100  0.73680300  0.68251200  1
  O  O70  1  0.88631550  0.76103650  0.97220900  1
  O  O71  1  0.84232650  0.61891050  0.46173900  1
  O  O72  1  0.07494400  0.09749100  0.42235500  1
  O  O73  1  0.91459700  0.42677500  0.28858100  1
  O  O74  1  0.08540300  0.42677500  0.71141900  1
  O  O75  1  0.92505600  0.09749100  0.57764500  1
  O  O76  1  0.15767350  0.61891050  0.53826100  1
  O  O77  1  0.00937900  0.73680300  0.31748800  1
  O  O78  1  0.27169150  0.33476050  0.30227400  1
  O  O79  1  0.89342300  0.23852600  0.38070600  1
