# generated using pymatgen
data_Na2NiO3
_symmetry_space_group_name_H-M   'P 1'
_cell_length_a   5.20237600
_cell_length_b   9.00944400
_cell_length_c   10.75984826
_cell_angle_alpha   90.00000000
_cell_angle_beta   99.65570948
_cell_angle_gamma   90.00000000
_symmetry_Int_Tables_number   1
_chemical_formula_structural   Na2NiO3
_chemical_formula_sum   'Na16 Ni8 O24'
_cell_volume   497.17514701
_cell_formula_units_Z   8
loop_
 _symmetry_equiv_pos_site_id
 _symmetry_equiv_pos_as_xyz
  1  'x, y, z'
loop_
 _atom_site_type_symbol
 _atom_site_label
 _atom_site_symmetry_multiplicity
 _atom_site_fract_x
 _atom_site_fract_y
 _atom_site_fract_z
 _atom_site_occupancy
  Na  Na0  1  0.23670650  0.92103650  0.99935500  1
  Na  Na1  1  0.23670650  0.07896350  0.49935500  1
  Na  Na2  1  0.75000000  0.25000000  0.50000000  1
  Na  Na3  1  0.50000000  0.58443400  0.75000000  1
  Na  Na4  1  0.50000000  0.41556600  0.25000000  1
  Na  Na5  1  0.76329350  0.92103650  0.50064500  1
  Na  Na6  1  0.75000000  0.75000000  0.00000000  1
  Na  Na7  1  0.76329350  0.07896350  0.00064500  1
  Na  Na8  1  0.73670650  0.42103650  0.99935500  1
  Na  Na9  1  0.73670650  0.57896350  0.49935500  1
  Na  Na10  1  0.25000000  0.75000000  0.50000000  1
  Na  Na11  1  0.00000000  0.08443400  0.75000000  1
  Na  Na12  1  0.00000000  0.91556600  0.25000000  1
  Na  Na13  1  0.26329350  0.42103650  0.50064500  1
  Na  Na14  1  0.25000000  0.25000000  0.00000000  1
  Na  Na15  1  0.26329350  0.57896350  0.00064500  1
  Ni  Ni16  1  0.50000000  0.91740600  0.75000000  1
  Ni  Ni17  1  0.50000000  0.25035800  0.75000000  1
  Ni  Ni18  1  0.50000000  0.08259400  0.25000000  1
  Ni  Ni19  1  0.50000000  0.74964200  0.25000000  1
  Ni  Ni20  1  0.00000000  0.41740600  0.75000000  1
  Ni  Ni21  1  0.00000000  0.75035800  0.75000000  1
  Ni  Ni22  1  0.00000000  0.58259400  0.25000000  1
  Ni  Ni23  1  0.00000000  0.24964200  0.25000000  1
  O  O24  1  0.15497150  0.89567950  0.65165800  1
  O  O25  1  0.34457850  0.77313550  0.84821800  1
  O  O26  1  0.15497150  0.10432050  0.15165800  1
  O  O27  1  0.41236700  0.08407200  0.84804800  1
  O  O28  1  0.34457850  0.22686450  0.34821800  1
  O  O29  1  0.41236700  0.91592800  0.34804800  1
  O  O30  1  0.58763300  0.08407200  0.65195200  1
  O  O31  1  0.65542150  0.77313550  0.65178200  1
  O  O32  1  0.58763300  0.91592800  0.15195200  1
  O  O33  1  0.84502850  0.89567950  0.84834200  1
  O  O34  1  0.65542150  0.22686450  0.15178200  1
  O  O35  1  0.84502850  0.10432050  0.34834200  1
  O  O36  1  0.65497150  0.39567950  0.65165800  1
  O  O37  1  0.84457850  0.27313550  0.84821800  1
  O  O38  1  0.65497150  0.60432050  0.15165800  1
  O  O39  1  0.91236700  0.58407200  0.84804800  1
  O  O40  1  0.84457850  0.72686450  0.34821800  1
  O  O41  1  0.91236700  0.41592800  0.34804800  1
  O  O42  1  0.08763300  0.58407200  0.65195200  1
  O  O43  1  0.15542150  0.27313550  0.65178200  1
  O  O44  1  0.08763300  0.41592800  0.15195200  1
  O  O45  1  0.34502850  0.39567950  0.84834200  1
  O  O46  1  0.15542150  0.72686450  0.15178200  1
  O  O47  1  0.34502850  0.60432050  0.34834200  1
