# generated using pymatgen
data_Na5Ni2As(CO4)4
_symmetry_space_group_name_H-M   'P 1'
_cell_length_a   14.04086800
_cell_length_b   14.06063600
_cell_length_c   14.10828800
_cell_angle_alpha   90.00000000
_cell_angle_beta   90.00000000
_cell_angle_gamma   90.00000000
_symmetry_Int_Tables_number   1
_chemical_formula_structural   Na5Ni2As(CO4)4
_chemical_formula_sum   'Na40 Ni16 As8 C32 O128'
_cell_volume   2785.30807667
_cell_formula_units_Z   8
loop_
 _symmetry_equiv_pos_site_id
 _symmetry_equiv_pos_as_xyz
  1  'x, y, z'
loop_
 _atom_site_type_symbol
 _atom_site_label
 _atom_site_symmetry_multiplicity
 _atom_site_fract_x
 _atom_site_fract_y
 _atom_site_fract_z
 _atom_site_occupancy
  Na  Na0  1  0.03472800  0.24399150  0.12312550  1
  Na  Na1  1  0.50571750  0.78503700  0.37365350  1
  Na  Na2  1  0.78472800  0.50600850  0.37312550  1
  Na  Na3  1  0.49428250  0.21496300  0.37365350  1
  Na  Na4  1  0.74428250  0.53503700  0.12365350  1
  Na  Na5  1  0.96527200  0.75600850  0.12312550  1
  Na  Na6  1  0.25571750  0.46496300  0.12365350  1
  Na  Na7  1  0.00000000  0.50000000  0.16030600  1
  Na  Na8  1  0.21527200  0.49399150  0.37312550  1
  Na  Na9  1  0.25000000  0.75000000  0.41030600  1
  Na  Na10  1  0.03472800  0.74399150  0.62312550  1
  Na  Na11  1  0.50571750  0.28503700  0.87365350  1
  Na  Na12  1  0.78472800  0.00600850  0.87312550  1
  Na  Na13  1  0.49428250  0.71496300  0.87365350  1
  Na  Na14  1  0.74428250  0.03503700  0.62365350  1
  Na  Na15  1  0.96527200  0.25600850  0.62312550  1
  Na  Na16  1  0.25571750  0.96496300  0.62365350  1
  Na  Na17  1  0.00000000  0.00000000  0.66030600  1
  Na  Na18  1  0.21527200  0.99399150  0.87312550  1
  Na  Na19  1  0.25000000  0.25000000  0.91030600  1
  Na  Na20  1  0.53472800  0.24399150  0.62312550  1
  Na  Na21  1  0.00571750  0.78503700  0.87365350  1
  Na  Na22  1  0.28472800  0.50600850  0.87312550  1
  Na  Na23  1  0.99428250  0.21496300  0.87365350  1
  Na  Na24  1  0.24428250  0.53503700  0.62365350  1
  Na  Na25  1  0.46527200  0.75600850  0.62312550  1
  Na  Na26  1  0.75571750  0.46496300  0.62365350  1
  Na  Na27  1  0.50000000  0.50000000  0.66030600  1
  Na  Na28  1  0.71527200  0.49399150  0.87312550  1
  Na  Na29  1  0.75000000  0.75000000  0.91030600  1
  Na  Na30  1  0.53472800  0.74399150  0.12312550  1
  Na  Na31  1  0.00571750  0.28503700  0.37365350  1
  Na  Na32  1  0.28472800  0.00600850  0.37312550  1
  Na  Na33  1  0.99428250  0.71496300  0.37365350  1
  Na  Na34  1  0.24428250  0.03503700  0.12365350  1
  Na  Na35  1  0.46527200  0.25600850  0.12312550  1
  Na  Na36  1  0.75571750  0.96496300  0.12365350  1
  Na  Na37  1  0.50000000  0.00000000  0.16030600  1
  Na  Na38  1  0.71527200  0.99399150  0.37312550  1
  Na  Na39  1  0.75000000  0.25000000  0.41030600  1
  Ni  Ni40  1  0.37366450  0.37398400  0.49983650  1
  Ni  Ni41  1  0.37633550  0.62398400  0.24983650  1
  Ni  Ni42  1  0.62633550  0.62601600  0.49983650  1
  Ni  Ni43  1  0.62366450  0.37601600  0.24983650  1
  Ni  Ni44  1  0.37366450  0.87398400  0.99983650  1
  Ni  Ni45  1  0.37633550  0.12398400  0.74983650  1
  Ni  Ni46  1  0.62633550  0.12601600  0.99983650  1
  Ni  Ni47  1  0.62366450  0.87601600  0.74983650  1
  Ni  Ni48  1  0.87366450  0.37398400  0.99983650  1
  Ni  Ni49  1  0.87633550  0.62398400  0.74983650  1
  Ni  Ni50  1  0.12633550  0.62601600  0.99983650  1
  Ni  Ni51  1  0.12366450  0.37601600  0.74983650  1
  Ni  Ni52  1  0.87366450  0.87398400  0.49983650  1
  Ni  Ni53  1  0.87633550  0.12398400  0.24983650  1
  Ni  Ni54  1  0.12633550  0.12601600  0.49983650  1
  Ni  Ni55  1  0.12366450  0.87601600  0.24983650  1
  As  As56  1  0.00000000  0.50000000  0.37650300  1
  As  As57  1  0.25000000  0.25000000  0.12650300  1
  As  As58  1  0.00000000  0.00000000  0.87650300  1
  As  As59  1  0.25000000  0.75000000  0.62650300  1
  As  As60  1  0.50000000  0.50000000  0.87650300  1
  As  As61  1  0.75000000  0.25000000  0.62650300  1
  As  As62  1  0.50000000  0.00000000  0.37650300  1
  As  As63  1  0.75000000  0.75000000  0.12650300  1
  C  C64  1  0.41095800  0.41077850  0.28682250  1
  C  C65  1  0.58904200  0.58922150  0.28682250  1
  C  C66  1  0.40999350  0.59008750  0.46501700  1
  C  C67  1  0.59000650  0.40991250  0.46501700  1
  C  C68  1  0.16095800  0.83922150  0.03682250  1
  C  C69  1  0.33904200  0.66077850  0.03682250  1
  C  C70  1  0.34000650  0.84008750  0.21501700  1
  C  C71  1  0.15999350  0.65991250  0.21501700  1
  C  C72  1  0.41095800  0.91077850  0.78682250  1
  C  C73  1  0.58904200  0.08922150  0.78682250  1
  C  C74  1  0.40999350  0.09008750  0.96501700  1
  C  C75  1  0.59000650  0.90991250  0.96501700  1
  C  C76  1  0.16095800  0.33922150  0.53682250  1
  C  C77  1  0.33904200  0.16077850  0.53682250  1
  C  C78  1  0.34000650  0.34008750  0.71501700  1
  C  C79  1  0.15999350  0.15991250  0.71501700  1
  C  C80  1  0.91095800  0.41077850  0.78682250  1
  C  C81  1  0.08904200  0.58922150  0.78682250  1
  C  C82  1  0.90999350  0.59008750  0.96501700  1
  C  C83  1  0.09000650  0.40991250  0.96501700  1
  C  C84  1  0.66095800  0.83922150  0.53682250  1
  C  C85  1  0.83904200  0.66077850  0.53682250  1
  C  C86  1  0.84000650  0.84008750  0.71501700  1
  C  C87  1  0.65999350  0.65991250  0.71501700  1
  C  C88  1  0.91095800  0.91077850  0.28682250  1
  C  C89  1  0.08904200  0.08922150  0.28682250  1
  C  C90  1  0.90999350  0.09008750  0.46501700  1
  C  C91  1  0.09000650  0.90991250  0.46501700  1
  C  C92  1  0.66095800  0.33922150  0.03682250  1
  C  C93  1  0.83904200  0.16077850  0.03682250  1
  C  C94  1  0.84000650  0.34008750  0.21501700  1
  C  C95  1  0.65999350  0.15991250  0.21501700  1
  O  O96  1  0.89884550  0.22918500  0.02185250  1
  O  O97  1  0.52094750  0.60424250  0.22703000  1
  O  O98  1  0.47905250  0.39575750  0.22703000  1
  O  O99  1  0.39931900  0.77081800  0.22898900  1
  O  O100  1  0.64884550  0.52081500  0.27185250  1
  O  O101  1  0.06995350  0.42989550  0.30458300  1
  O  O102  1  0.93004650  0.57010450  0.30458300  1
  O  O103  1  0.59878550  0.64528900  0.35799950  1
  O  O104  1  0.40121450  0.35471100  0.35799950  1
  O  O105  1  0.39665400  0.64836200  0.39473800  1
  O  O106  1  0.60334600  0.35163800  0.39473800  1
  O  O107  1  0.07402550  0.57315750  0.44080800  1
  O  O108  1  0.42597450  0.92684250  0.44080800  1
  O  O109  1  0.22905250  0.35424250  0.47703000  1
  O  O110  1  0.77094750  0.64575750  0.47703000  1
  O  O111  1  0.64931900  0.47918200  0.47898900  1
  O  O112  1  0.10115450  0.77081500  0.02185250  1
  O  O113  1  0.97948900  0.60444500  0.02375300  1
  O  O114  1  0.02051100  0.39555500  0.02375300  1
  O  O115  1  0.18004650  0.17989550  0.05458300  1
  O  O116  1  0.31995350  0.32010450  0.05458300  1
  O  O117  1  0.15121450  0.89528900  0.10799950  1
  O  O118  1  0.34878550  0.60471100  0.10799950  1
  O  O119  1  0.85334600  0.39836200  0.14473800  1
  O  O120  1  0.14665400  0.60163800  0.14473800  1
  O  O121  1  0.32402550  0.17684250  0.19080800  1
  O  O122  1  0.17597450  0.32315750  0.19080800  1
  O  O123  1  0.10068100  0.72918200  0.22898900  1
  O  O124  1  0.35115450  0.47918500  0.27185250  1
  O  O125  1  0.22948900  0.64555500  0.27375300  1
  O  O126  1  0.27051100  0.85444500  0.27375300  1
  O  O127  1  0.35068100  0.52081800  0.47898900  1
  O  O128  1  0.89884550  0.72918500  0.52185250  1
  O  O129  1  0.52094750  0.10424250  0.72703000  1
  O  O130  1  0.47905250  0.89575750  0.72703000  1
  O  O131  1  0.39931900  0.27081800  0.72898900  1
  O  O132  1  0.64884550  0.02081500  0.77185250  1
  O  O133  1  0.06995350  0.92989550  0.80458300  1
  O  O134  1  0.93004650  0.07010450  0.80458300  1
  O  O135  1  0.59878550  0.14528900  0.85799950  1
  O  O136  1  0.40121450  0.85471100  0.85799950  1
  O  O137  1  0.39665400  0.14836200  0.89473800  1
  O  O138  1  0.60334600  0.85163800  0.89473800  1
  O  O139  1  0.07402550  0.07315750  0.94080800  1
  O  O140  1  0.42597450  0.42684250  0.94080800  1
  O  O141  1  0.22905250  0.85424250  0.97703000  1
  O  O142  1  0.77094750  0.14575750  0.97703000  1
  O  O143  1  0.64931900  0.97918200  0.97898900  1
  O  O144  1  0.10115450  0.27081500  0.52185250  1
  O  O145  1  0.97948900  0.10444500  0.52375300  1
  O  O146  1  0.02051100  0.89555500  0.52375300  1
  O  O147  1  0.18004650  0.67989550  0.55458300  1
  O  O148  1  0.31995350  0.82010450  0.55458300  1
  O  O149  1  0.15121450  0.39528900  0.60799950  1
  O  O150  1  0.34878550  0.10471100  0.60799950  1
  O  O151  1  0.85334600  0.89836200  0.64473800  1
  O  O152  1  0.14665400  0.10163800  0.64473800  1
  O  O153  1  0.32402550  0.67684250  0.69080800  1
  O  O154  1  0.17597450  0.82315750  0.69080800  1
  O  O155  1  0.10068100  0.22918200  0.72898900  1
  O  O156  1  0.35115450  0.97918500  0.77185250  1
  O  O157  1  0.22948900  0.14555500  0.77375300  1
  O  O158  1  0.27051100  0.35444500  0.77375300  1
  O  O159  1  0.35068100  0.02081800  0.97898900  1
  O  O160  1  0.39884550  0.22918500  0.52185250  1
  O  O161  1  0.02094750  0.60424250  0.72703000  1
  O  O162  1  0.97905250  0.39575750  0.72703000  1
  O  O163  1  0.89931900  0.77081800  0.72898900  1
  O  O164  1  0.14884550  0.52081500  0.77185250  1
  O  O165  1  0.56995350  0.42989550  0.80458300  1
  O  O166  1  0.43004650  0.57010450  0.80458300  1
  O  O167  1  0.09878550  0.64528900  0.85799950  1
  O  O168  1  0.90121450  0.35471100  0.85799950  1
  O  O169  1  0.89665400  0.64836200  0.89473800  1
  O  O170  1  0.10334600  0.35163800  0.89473800  1
  O  O171  1  0.57402550  0.57315750  0.94080800  1
  O  O172  1  0.92597450  0.92684250  0.94080800  1
  O  O173  1  0.72905250  0.35424250  0.97703000  1
  O  O174  1  0.27094750  0.64575750  0.97703000  1
  O  O175  1  0.14931900  0.47918200  0.97898900  1
  O  O176  1  0.60115450  0.77081500  0.52185250  1
  O  O177  1  0.47948900  0.60444500  0.52375300  1
  O  O178  1  0.52051100  0.39555500  0.52375300  1
  O  O179  1  0.68004650  0.17989550  0.55458300  1
  O  O180  1  0.81995350  0.32010450  0.55458300  1
  O  O181  1  0.65121450  0.89528900  0.60799950  1
  O  O182  1  0.84878550  0.60471100  0.60799950  1
  O  O183  1  0.35334600  0.39836200  0.64473800  1
  O  O184  1  0.64665400  0.60163800  0.64473800  1
  O  O185  1  0.82402550  0.17684250  0.69080800  1
  O  O186  1  0.67597450  0.32315750  0.69080800  1
  O  O187  1  0.60068100  0.72918200  0.72898900  1
  O  O188  1  0.85115450  0.47918500  0.77185250  1
  O  O189  1  0.72948900  0.64555500  0.77375300  1
  O  O190  1  0.77051100  0.85444500  0.77375300  1
  O  O191  1  0.85068100  0.52081800  0.97898900  1
  O  O192  1  0.39884550  0.72918500  0.02185250  1
  O  O193  1  0.02094750  0.10424250  0.22703000  1
  O  O194  1  0.97905250  0.89575750  0.22703000  1
  O  O195  1  0.89931900  0.27081800  0.22898900  1
  O  O196  1  0.14884550  0.02081500  0.27185250  1
  O  O197  1  0.56995350  0.92989550  0.30458300  1
  O  O198  1  0.43004650  0.07010450  0.30458300  1
  O  O199  1  0.09878550  0.14528900  0.35799950  1
  O  O200  1  0.90121450  0.85471100  0.35799950  1
  O  O201  1  0.89665400  0.14836200  0.39473800  1
  O  O202  1  0.10334600  0.85163800  0.39473800  1
  O  O203  1  0.57402550  0.07315750  0.44080800  1
  O  O204  1  0.92597450  0.42684250  0.44080800  1
  O  O205  1  0.72905250  0.85424250  0.47703000  1
  O  O206  1  0.27094750  0.14575750  0.47703000  1
  O  O207  1  0.14931900  0.97918200  0.47898900  1
  O  O208  1  0.60115450  0.27081500  0.02185250  1
  O  O209  1  0.47948900  0.10444500  0.02375300  1
  O  O210  1  0.52051100  0.89555500  0.02375300  1
  O  O211  1  0.68004650  0.67989550  0.05458300  1
  O  O212  1  0.81995350  0.82010450  0.05458300  1
  O  O213  1  0.65121450  0.39528900  0.10799950  1
  O  O214  1  0.84878550  0.10471100  0.10799950  1
  O  O215  1  0.35334600  0.89836200  0.14473800  1
  O  O216  1  0.64665400  0.10163800  0.14473800  1
  O  O217  1  0.82402550  0.67684250  0.19080800  1
  O  O218  1  0.67597450  0.82315750  0.19080800  1
  O  O219  1  0.60068100  0.22918200  0.22898900  1
  O  O220  1  0.85115450  0.97918500  0.27185250  1
  O  O221  1  0.72948900  0.14555500  0.27375300  1
  O  O222  1  0.77051100  0.35444500  0.27375300  1
  O  O223  1  0.85068100  0.02081800  0.47898900  1
