# generated using pymatgen
data_Li3TiCo3O8
_symmetry_space_group_name_H-M   'P 1'
_cell_length_a   5.68226572
_cell_length_b   5.68226572
_cell_length_c   14.58057381
_cell_angle_alpha   90.00000000
_cell_angle_beta   90.00000000
_cell_angle_gamma   120.00000000
_symmetry_Int_Tables_number   1
_chemical_formula_structural   Li3TiCo3O8
_chemical_formula_sum   'Li9 Ti3 Co9 O24'
_cell_volume   407.70714773
_cell_formula_units_Z   3
loop_
 _symmetry_equiv_pos_site_id
 _symmetry_equiv_pos_as_xyz
  1  'x, y, z'
loop_
 _atom_site_type_symbol
 _atom_site_label
 _atom_site_symmetry_multiplicity
 _atom_site_fract_x
 _atom_site_fract_y
 _atom_site_fract_z
 _atom_site_occupancy
  Li  Li0  1  0.83333333  0.66666667  0.16666667  1
  Li  Li1  1  0.83333333  0.16666667  0.16666667  1
  Li  Li2  1  0.33333333  0.16666667  0.16666667  1
  Li  Li3  1  0.50000000  0.00000000  0.50000000  1
  Li  Li4  1  0.50000000  0.50000000  0.50000000  1
  Li  Li5  1  0.00000000  0.50000000  0.50000000  1
  Li  Li6  1  0.16666667  0.33333333  0.83333333  1
  Li  Li7  1  0.16666667  0.83333333  0.83333333  1
  Li  Li8  1  0.66666667  0.83333333  0.83333333  1
  Ti  Ti9  1  0.00000000  0.00000000  0.00000000  1
  Ti  Ti10  1  0.66666667  0.33333333  0.33333333  1
  Ti  Ti11  1  0.33333333  0.66666667  0.66666667  1
  Co  Co12  1  0.00000000  0.50000000  0.00000000  1
  Co  Co13  1  0.50000000  0.00000000  0.00000000  1
  Co  Co14  1  0.50000000  0.50000000  0.00000000  1
  Co  Co15  1  0.66666667  0.83333333  0.33333333  1
  Co  Co16  1  0.16666667  0.33333333  0.33333333  1
  Co  Co17  1  0.16666667  0.83333333  0.33333333  1
  Co  Co18  1  0.33333333  0.16666667  0.66666667  1
  Co  Co19  1  0.83333333  0.66666667  0.66666667  1
  Co  Co20  1  0.83333333  0.16666667  0.66666667  1
  O  O21  1  0.16708067  0.83291933  0.07278933  1
  O  O22  1  0.16708067  0.33416133  0.07278933  1
  O  O23  1  0.66583867  0.83291933  0.07278933  1
  O  O24  1  0.66666667  0.33333333  0.07060633  1
  O  O25  1  0.00000000  0.00000000  0.26272700  1
  O  O26  1  0.00082800  0.50041400  0.26054400  1
  O  O27  1  0.49958600  0.99917200  0.26054400  1
  O  O28  1  0.49958600  0.50041400  0.26054400  1
  O  O29  1  0.83374733  0.16625267  0.40612267  1
  O  O30  1  0.83374733  0.66749467  0.40612267  1
  O  O31  1  0.33250533  0.16625267  0.40612267  1
  O  O32  1  0.33333333  0.66666667  0.40393967  1
  O  O33  1  0.66666667  0.33333333  0.59606033  1
  O  O34  1  0.66749467  0.83374733  0.59387733  1
  O  O35  1  0.16625267  0.33250533  0.59387733  1
  O  O36  1  0.16625267  0.83374733  0.59387733  1
  O  O37  1  0.50041400  0.49958600  0.73945600  1
  O  O38  1  0.50041400  0.00082800  0.73945600  1
  O  O39  1  0.99917200  0.49958600  0.73945600  1
  O  O40  1  0.00000000  0.00000000  0.73727300  1
  O  O41  1  0.33333333  0.66666667  0.92939367  1
  O  O42  1  0.33416133  0.16708067  0.92721067  1
  O  O43  1  0.83291933  0.66583867  0.92721067  1
  O  O44  1  0.83291933  0.16708067  0.92721067  1
