# generated using pymatgen
data_Li7Co5O12
_symmetry_space_group_name_H-M   'P 1'
_cell_length_a   4.90904800
_cell_length_b   8.48992800
_cell_length_c   9.60966625
_cell_angle_alpha   90.00000000
_cell_angle_beta   100.04511341
_cell_angle_gamma   90.00000000
_symmetry_Int_Tables_number   1
_chemical_formula_structural   Li7Co5O12
_chemical_formula_sum   'Li14 Co10 O24'
_cell_volume   394.36704387
_cell_formula_units_Z   2
loop_
 _symmetry_equiv_pos_site_id
 _symmetry_equiv_pos_as_xyz
  1  'x, y, z'
loop_
 _atom_site_type_symbol
 _atom_site_label
 _atom_site_symmetry_multiplicity
 _atom_site_fract_x
 _atom_site_fract_y
 _atom_site_fract_z
 _atom_site_occupancy
  Li  Li0  1  0.24387600  0.00000000  0.75080400  1
  Li  Li1  1  0.75338300  0.83780500  0.75125500  1
  Li  Li2  1  0.24661700  0.16219500  0.24874500  1
  Li  Li3  1  0.75612400  0.00000000  0.24919600  1
  Li  Li4  1  0.24661700  0.83780500  0.24874500  1
  Li  Li5  1  0.75338300  0.16219500  0.75125500  1
  Li  Li6  1  0.00000000  0.00000000  0.00000000  1
  Li  Li7  1  0.74387600  0.50000000  0.75080400  1
  Li  Li8  1  0.25338300  0.33780500  0.75125500  1
  Li  Li9  1  0.74661700  0.66219500  0.24874500  1
  Li  Li10  1  0.25612400  0.50000000  0.24919600  1
  Li  Li11  1  0.74661700  0.33780500  0.24874500  1
  Li  Li12  1  0.25338300  0.66219500  0.75125500  1
  Li  Li13  1  0.50000000  0.50000000  0.00000000  1
  Co  Co14  1  0.50000000  0.83439400  0.00000000  1
  Co  Co15  1  0.50000000  0.00000000  0.50000000  1
  Co  Co16  1  0.50000000  0.33611300  0.50000000  1
  Co  Co17  1  0.50000000  0.16560600  0.00000000  1
  Co  Co18  1  0.50000000  0.66388700  0.50000000  1
  Co  Co19  1  0.00000000  0.33439400  0.00000000  1
  Co  Co20  1  0.00000000  0.50000000  0.50000000  1
  Co  Co21  1  0.00000000  0.83611300  0.50000000  1
  Co  Co22  1  0.00000000  0.66560600  0.00000000  1
  Co  Co23  1  0.00000000  0.16388700  0.50000000  1
  O  O24  1  0.62947800  0.83627900  0.39208600  1
  O  O25  1  0.35351500  0.32005300  0.11184200  1
  O  O26  1  0.39485700  0.00000000  0.11143400  1
  O  O27  1  0.64648500  0.32005300  0.88815800  1
  O  O28  1  0.37052200  0.83627900  0.60791400  1
  O  O29  1  0.60514300  0.00000000  0.88856600  1
  O  O30  1  0.87062000  0.00000000  0.60985100  1
  O  O31  1  0.64648500  0.67994700  0.88815800  1
  O  O32  1  0.37052200  0.16372100  0.60791400  1
  O  O33  1  0.12938000  0.00000000  0.39014900  1
  O  O34  1  0.62947800  0.16372100  0.39208600  1
  O  O35  1  0.35351500  0.67994700  0.11184200  1
  O  O36  1  0.12947800  0.33627900  0.39208600  1
  O  O37  1  0.85351500  0.82005300  0.11184200  1
  O  O38  1  0.89485700  0.50000000  0.11143400  1
  O  O39  1  0.14648500  0.82005300  0.88815800  1
  O  O40  1  0.87052200  0.33627900  0.60791400  1
  O  O41  1  0.10514300  0.50000000  0.88856600  1
  O  O42  1  0.37062000  0.50000000  0.60985100  1
  O  O43  1  0.14648500  0.17994700  0.88815800  1
  O  O44  1  0.87052200  0.66372100  0.60791400  1
  O  O45  1  0.62938000  0.50000000  0.39014900  1
  O  O46  1  0.12947800  0.66372100  0.39208600  1
  O  O47  1  0.85351500  0.17994700  0.11184200  1
