# generated using pymatgen
data_Li4V3Co3(WO8)2
_symmetry_space_group_name_H-M   'P 1'
_cell_length_a   10.32425400
_cell_length_b   6.01711400
_cell_length_c   9.77378207
_cell_angle_alpha   90.00000000
_cell_angle_beta   90.51123676
_cell_angle_gamma   90.00000000
_symmetry_Int_Tables_number   1
_chemical_formula_structural   Li4V3Co3(WO8)2
_chemical_formula_sum   'Li8 V6 Co6 W4 O32'
_cell_volume   607.14480444
_cell_formula_units_Z   2
loop_
 _symmetry_equiv_pos_site_id
 _symmetry_equiv_pos_as_xyz
  1  'x, y, z'
loop_
 _atom_site_type_symbol
 _atom_site_label
 _atom_site_symmetry_multiplicity
 _atom_site_fract_x
 _atom_site_fract_y
 _atom_site_fract_z
 _atom_site_occupancy
  Li  Li0  1  0.33255700  0.00000000  0.90473000  1
  Li  Li1  1  0.00277100  0.00000000  0.98820100  1
  Li  Li2  1  0.00211100  0.00000000  0.48602200  1
  Li  Li3  1  0.66345400  0.00000000  0.40542600  1
  Li  Li4  1  0.83255700  0.50000000  0.90473000  1
  Li  Li5  1  0.50277100  0.50000000  0.98820100  1
  Li  Li6  1  0.50211100  0.50000000  0.48602200  1
  Li  Li7  1  0.16345400  0.50000000  0.40542600  1
  V  V8  1  0.17649000  0.00000000  0.22502700  1
  V  V9  1  0.59010250  0.75453950  0.71770200  1
  V  V10  1  0.59010250  0.24546050  0.71770200  1
  V  V11  1  0.67649000  0.50000000  0.22502700  1
  V  V12  1  0.09010250  0.25453950  0.71770200  1
  V  V13  1  0.09010250  0.74546050  0.71770200  1
  Co  Co14  1  0.41397650  0.75565050  0.21128300  1
  Co  Co15  1  0.41397650  0.24434950  0.21128300  1
  Co  Co16  1  0.82887500  0.00000000  0.71138000  1
  Co  Co17  1  0.91397650  0.25565050  0.21128300  1
  Co  Co18  1  0.91397650  0.74434950  0.21128300  1
  Co  Co19  1  0.32887500  0.50000000  0.71138000  1
  W  W20  1  0.33937300  0.00000000  0.49001300  1
  W  W21  1  0.66752200  0.00000000  0.98991000  1
  W  W22  1  0.83937300  0.50000000  0.49001300  1
  W  W23  1  0.16752200  0.50000000  0.98991000  1
  O  O24  1  0.41737650  0.75926350  0.58600700  1
  O  O25  1  0.47639200  0.00000000  0.35296500  1
  O  O26  1  0.31614000  0.00000000  0.10884200  1
  O  O27  1  0.01001900  0.00000000  0.29604700  1
  O  O28  1  0.00136400  0.00000000  0.79947000  1
  O  O29  1  0.41737650  0.24073650  0.58600700  1
  O  O30  1  0.25191650  0.78652550  0.35285000  1
  O  O31  1  0.25191650  0.21347450  0.35285000  1
  O  O32  1  0.83053000  0.00000000  0.08240200  1
  O  O33  1  0.17747400  0.00000000  0.59240600  1
  O  O34  1  0.73577950  0.77664450  0.85087100  1
  O  O35  1  0.73577950  0.22335550  0.85087100  1
  O  O36  1  0.65933600  0.00000000  0.60702300  1
  O  O37  1  0.59079500  0.75989100  0.08947800  1
  O  O38  1  0.52040800  0.00000000  0.85158800  1
  O  O39  1  0.59079500  0.24010900  0.08947800  1
  O  O40  1  0.91737650  0.25926350  0.58600700  1
  O  O41  1  0.97639200  0.50000000  0.35296500  1
  O  O42  1  0.81614000  0.50000000  0.10884200  1
  O  O43  1  0.51001900  0.50000000  0.29604700  1
  O  O44  1  0.50136400  0.50000000  0.79947000  1
  O  O45  1  0.91737650  0.74073650  0.58600700  1
  O  O46  1  0.75191650  0.28652550  0.35285000  1
  O  O47  1  0.75191650  0.71347450  0.35285000  1
  O  O48  1  0.33053000  0.50000000  0.08240200  1
  O  O49  1  0.67747400  0.50000000  0.59240600  1
  O  O50  1  0.23577950  0.27664450  0.85087100  1
  O  O51  1  0.23577950  0.72335550  0.85087100  1
  O  O52  1  0.15933600  0.50000000  0.60702300  1
  O  O53  1  0.09079500  0.25989100  0.08947800  1
  O  O54  1  0.02040800  0.50000000  0.85158800  1
  O  O55  1  0.09079500  0.74010900  0.08947800  1
