# generated using pymatgen
data_Mn3F8
_symmetry_space_group_name_H-M   'P 1'
_cell_length_a   6.44199800
_cell_length_b   11.23805400
_cell_length_c   9.28370515
_cell_angle_alpha   90.00000000
_cell_angle_beta   90.69048858
_cell_angle_gamma   90.00000000
_symmetry_Int_Tables_number   1
_chemical_formula_structural   Mn3F8
_chemical_formula_sum   'Mn12 F32'
_cell_volume   672.04986934
_cell_formula_units_Z   4
loop_
 _symmetry_equiv_pos_site_id
 _symmetry_equiv_pos_as_xyz
  1  'x, y, z'
loop_
 _atom_site_type_symbol
 _atom_site_label
 _atom_site_symmetry_multiplicity
 _atom_site_fract_x
 _atom_site_fract_y
 _atom_site_fract_z
 _atom_site_occupancy
  Mn  Mn0  1  0.49993500  0.66669500  0.75200900  1
  Mn  Mn1  1  0.25044750  0.91661150  0.75163900  1
  Mn  Mn2  1  0.75044750  0.58338850  0.25163900  1
  Mn  Mn3  1  0.74976550  0.91633750  0.75275500  1
  Mn  Mn4  1  0.24976550  0.58366250  0.25275500  1
  Mn  Mn5  1  0.99993500  0.83330500  0.25200900  1
  Mn  Mn6  1  0.99993500  0.16669500  0.75200900  1
  Mn  Mn7  1  0.75044750  0.41661150  0.75163900  1
  Mn  Mn8  1  0.25044750  0.08338850  0.25163900  1
  Mn  Mn9  1  0.24976550  0.41633750  0.75275500  1
  Mn  Mn10  1  0.74976550  0.08366250  0.25275500  1
  Mn  Mn11  1  0.49993500  0.33330500  0.25200900  1
  F  F12  1  0.50876950  0.50614950  0.37073500  1
  F  F13  1  0.00876950  0.99385050  0.87073500  1
  F  F14  1  0.52622800  0.64692000  0.15041100  1
  F  F15  1  0.29136750  0.75670550  0.85113400  1
  F  F16  1  0.20942050  0.92302050  0.15367900  1
  F  F17  1  0.70927150  0.74851950  0.85181600  1
  F  F18  1  0.49123000  0.83969000  0.63233900  1
  F  F19  1  0.47342050  0.97989750  0.85423200  1
  F  F20  1  0.79026900  0.91543000  0.15181800  1
  F  F21  1  0.70942050  0.57697950  0.65367900  1
  F  F22  1  0.97342050  0.52010250  0.35423200  1
  F  F23  1  0.99123000  0.66031000  0.13233900  1
  F  F24  1  0.79136750  0.74329450  0.35113400  1
  F  F25  1  0.29026900  0.58457000  0.65181800  1
  F  F26  1  0.20927150  0.75148050  0.35181600  1
  F  F27  1  0.02622800  0.85308000  0.65041100  1
  F  F28  1  0.00876950  0.00614950  0.37073500  1
  F  F29  1  0.50876950  0.49385050  0.87073500  1
  F  F30  1  0.02622800  0.14692000  0.15041100  1
  F  F31  1  0.79136750  0.25670550  0.85113400  1
  F  F32  1  0.70942050  0.42302050  0.15367900  1
  F  F33  1  0.20927150  0.24851950  0.85181600  1
  F  F34  1  0.99123000  0.33969000  0.63233900  1
  F  F35  1  0.97342050  0.47989750  0.85423200  1
  F  F36  1  0.29026900  0.41543000  0.15181800  1
  F  F37  1  0.20942050  0.07697950  0.65367900  1
  F  F38  1  0.47342050  0.02010250  0.35423200  1
  F  F39  1  0.49123000  0.16031000  0.13233900  1
  F  F40  1  0.29136750  0.24329450  0.35113400  1
  F  F41  1  0.79026900  0.08457000  0.65181800  1
  F  F42  1  0.70927150  0.25148050  0.35181600  1
  F  F43  1  0.52622800  0.35308000  0.65041100  1
