# generated using pymatgen
data_LiMn3NiO8
_symmetry_space_group_name_H-M   'P 1'
_cell_length_a   9.97167400
_cell_length_b   5.81738600
_cell_length_c   5.96992308
_cell_angle_alpha   90.00000000
_cell_angle_beta   122.43356423
_cell_angle_gamma   90.00000000
_symmetry_Int_Tables_number   1
_chemical_formula_structural   LiMn3NiO8
_chemical_formula_sum   'Li2 Mn6 Ni2 O16'
_cell_volume   292.29021887
_cell_formula_units_Z   2
loop_
 _symmetry_equiv_pos_site_id
 _symmetry_equiv_pos_as_xyz
  1  'x, y, z'
loop_
 _atom_site_type_symbol
 _atom_site_label
 _atom_site_symmetry_multiplicity
 _atom_site_fract_x
 _atom_site_fract_y
 _atom_site_fract_z
 _atom_site_occupancy
  Li  Li0  1  0.00000000  0.00000000  0.00000000  1
  Li  Li1  1  0.50000000  0.50000000  0.00000000  1
  Mn  Mn2  1  0.25000000  0.75000000  0.50000000  1
  Mn  Mn3  1  0.50000000  0.00000000  0.50000000  1
  Mn  Mn4  1  0.25000000  0.25000000  0.50000000  1
  Mn  Mn5  1  0.75000000  0.25000000  0.50000000  1
  Mn  Mn6  1  0.00000000  0.50000000  0.50000000  1
  Mn  Mn7  1  0.75000000  0.75000000  0.50000000  1
  Ni  Ni8  1  0.00000000  0.00000000  0.50000000  1
  Ni  Ni9  1  0.50000000  0.50000000  0.50000000  1
  O  O10  1  0.47564900  0.76176000  0.70400400  1
  O  O11  1  0.47564900  0.23824000  0.70400400  1
  O  O12  1  0.22417700  0.00000000  0.68691400  1
  O  O13  1  0.73324700  0.00000000  0.69836700  1
  O  O14  1  0.26675300  0.00000000  0.30163300  1
  O  O15  1  0.77582300  0.00000000  0.31308600  1
  O  O16  1  0.52435100  0.76176000  0.29599600  1
  O  O17  1  0.52435100  0.23824000  0.29599600  1
  O  O18  1  0.97564900  0.26176000  0.70400400  1
  O  O19  1  0.97564900  0.73824000  0.70400400  1
  O  O20  1  0.72417700  0.50000000  0.68691400  1
  O  O21  1  0.23324700  0.50000000  0.69836700  1
  O  O22  1  0.76675300  0.50000000  0.30163300  1
  O  O23  1  0.27582300  0.50000000  0.31308600  1
  O  O24  1  0.02435100  0.26176000  0.29599600  1
  O  O25  1  0.02435100  0.73824000  0.29599600  1
