# generated using pymatgen
data_V2Bi4O11
_symmetry_space_group_name_H-M   'P 1'
_cell_length_a   15.20200800
_cell_length_b   5.68201200
_cell_length_c   11.10758401
_cell_angle_alpha   90.00000000
_cell_angle_beta   90.09101234
_cell_angle_gamma   90.00000000
_symmetry_Int_Tables_number   1
_chemical_formula_structural   V2Bi4O11
_chemical_formula_sum   'V8 Bi16 O44'
_cell_volume   959.44959127
_cell_formula_units_Z   4
loop_
 _symmetry_equiv_pos_site_id
 _symmetry_equiv_pos_as_xyz
  1  'x, y, z'
loop_
 _atom_site_type_symbol
 _atom_site_label
 _atom_site_symmetry_multiplicity
 _atom_site_fract_x
 _atom_site_fract_y
 _atom_site_fract_z
 _atom_site_occupancy
  V  V0  1  0.00000000  0.00934800  0.00000000  1
  V  V1  1  0.50591650  0.05984250  0.24670900  1
  V  V2  1  0.00000000  0.00167300  0.50000000  1
  V  V3  1  0.99408350  0.55984250  0.75329100  1
  V  V4  1  0.50000000  0.50934800  0.00000000  1
  V  V5  1  0.00591650  0.55984250  0.24670900  1
  V  V6  1  0.50000000  0.50167300  0.50000000  1
  V  V7  1  0.49408350  0.05984250  0.75329100  1
  Bi  Bi8  1  0.66477250  0.99564350  0.99117600  1
  Bi  Bi9  1  0.65998450  0.56372150  0.25156500  1
  Bi  Bi10  1  0.82013950  0.06207250  0.24974700  1
  Bi  Bi11  1  0.83497150  0.50182950  0.49204300  1
  Bi  Bi12  1  0.66502850  0.00182950  0.50795700  1
  Bi  Bi13  1  0.67986050  0.56207250  0.75025300  1
  Bi  Bi14  1  0.84001550  0.06372150  0.74843500  1
  Bi  Bi15  1  0.83522750  0.49564350  0.00882400  1
  Bi  Bi16  1  0.16477250  0.49564350  0.99117600  1
  Bi  Bi17  1  0.15998450  0.06372150  0.25156500  1
  Bi  Bi18  1  0.32013950  0.56207250  0.24974700  1
  Bi  Bi19  1  0.33497150  0.00182950  0.49204300  1
  Bi  Bi20  1  0.16502850  0.50182950  0.50795700  1
  Bi  Bi21  1  0.17986050  0.06207250  0.75025300  1
  Bi  Bi22  1  0.34001550  0.56372150  0.74843500  1
  Bi  Bi23  1  0.33522750  0.99564350  0.00882400  1
  O  O24  1  0.89610300  0.12118600  0.04393400  1
  O  O25  1  0.74097950  0.80271650  0.12868700  1
  O  O26  1  0.52485000  0.33274400  0.12706900  1
  O  O27  1  0.54486400  0.88488000  0.12976600  1
  O  O28  1  0.73583850  0.29695250  0.12847500  1
  O  O29  1  0.89444750  0.51531450  0.25145900  1
  O  O30  1  0.74289150  0.79974950  0.37459300  1
  O  O31  1  0.55299300  0.88891800  0.35922700  1
  O  O32  1  0.52559450  0.33017750  0.37197700  1
  O  O33  1  0.73581400  0.29600100  0.37219200  1
  O  O34  1  0.60019400  0.62930800  0.54444900  1
  O  O35  1  0.89980600  0.12930800  0.45555100  1
  O  O36  1  0.76418600  0.79600100  0.62780800  1
  O  O37  1  0.97440550  0.83017750  0.62802300  1
  O  O38  1  0.94700700  0.38891800  0.64077300  1
  O  O39  1  0.75710850  0.29974950  0.62540700  1
  O  O40  1  0.60555250  0.01531450  0.74854100  1
  O  O41  1  0.76416150  0.79695250  0.87152500  1
  O  O42  1  0.95513600  0.38488000  0.87023400  1
  O  O43  1  0.97515000  0.83274400  0.87293100  1
  O  O44  1  0.75902050  0.30271650  0.87131300  1
  O  O45  1  0.60389700  0.62118600  0.95606600  1
  O  O46  1  0.39610300  0.62118600  0.04393400  1
  O  O47  1  0.24097950  0.30271650  0.12868700  1
  O  O48  1  0.02485000  0.83274400  0.12706900  1
  O  O49  1  0.04486400  0.38488000  0.12976600  1
  O  O50  1  0.23583850  0.79695250  0.12847500  1
  O  O51  1  0.39444750  0.01531450  0.25145900  1
  O  O52  1  0.24289150  0.29974950  0.37459300  1
  O  O53  1  0.05299300  0.38891800  0.35922700  1
  O  O54  1  0.02559450  0.83017750  0.37197700  1
  O  O55  1  0.23581400  0.79600100  0.37219200  1
  O  O56  1  0.10019400  0.12930800  0.54444900  1
  O  O57  1  0.39980600  0.62930800  0.45555100  1
  O  O58  1  0.26418600  0.29600100  0.62780800  1
  O  O59  1  0.47440550  0.33017750  0.62802300  1
  O  O60  1  0.44700700  0.88891800  0.64077300  1
  O  O61  1  0.25710850  0.79974950  0.62540700  1
  O  O62  1  0.10555250  0.51531450  0.74854100  1
  O  O63  1  0.26416150  0.29695250  0.87152500  1
  O  O64  1  0.45513600  0.88488000  0.87023400  1
  O  O65  1  0.47515000  0.33274400  0.87293100  1
  O  O66  1  0.25902050  0.80271650  0.87131300  1
  O  O67  1  0.10389700  0.12118600  0.95606600  1
