# generated using pymatgen
data_TiP6(WO8)3
_symmetry_space_group_name_H-M   'P 1'
_cell_length_a   8.77957550
_cell_length_b   8.77957550
_cell_length_c   22.03910619
_cell_angle_alpha   90.00000000
_cell_angle_beta   90.00000000
_cell_angle_gamma   120.00000000
_symmetry_Int_Tables_number   1
_chemical_formula_structural   TiP6(WO8)3
_chemical_formula_sum   'Ti3 P18 W9 O72'
_cell_volume   1471.19975998
_cell_formula_units_Z   3
loop_
 _symmetry_equiv_pos_site_id
 _symmetry_equiv_pos_as_xyz
  1  'x, y, z'
loop_
 _atom_site_type_symbol
 _atom_site_label
 _atom_site_symmetry_multiplicity
 _atom_site_fract_x
 _atom_site_fract_y
 _atom_site_fract_z
 _atom_site_occupancy
  Ti  Ti0  1  0.66666667  0.33333333  0.19228733  1
  Ti  Ti1  1  0.33333333  0.66666667  0.52562067  1
  Ti  Ti2  1  0.00000000  0.00000000  0.85895400  1
  P  P3  1  0.38459133  0.05047667  0.08474267  1
  P  P4  1  0.66588533  0.61540867  0.08474267  1
  P  P5  1  0.94952333  0.33411467  0.08474267  1
  P  P6  1  0.71279200  0.00391200  0.24990400  1
  P  P7  1  0.99608800  0.70888000  0.24990400  1
  P  P8  1  0.29112000  0.28720800  0.24990400  1
  P  P9  1  0.05125800  0.38381000  0.41807600  1
  P  P10  1  0.33255200  0.94874200  0.41807600  1
  P  P11  1  0.61619000  0.66744800  0.41807600  1
  P  P12  1  0.37945867  0.33724533  0.58323733  1
  P  P13  1  0.66275467  0.04221333  0.58323733  1
  P  P14  1  0.95778667  0.62054133  0.58323733  1
  P  P15  1  0.71792467  0.71714333  0.75140933  1
  P  P16  1  0.99921867  0.28207533  0.75140933  1
  P  P17  1  0.28285667  0.00078133  0.75140933  1
  P  P18  1  0.04612533  0.67057867  0.91657067  1
  P  P19  1  0.32942133  0.37554667  0.91657067  1
  P  P20  1  0.62445333  0.95387467  0.91657067  1
  W  W21  1  0.00000000  0.00000000  0.14246900  1
  W  W22  1  0.33333333  0.66666667  0.02436167  1
  W  W23  1  0.33333333  0.66666667  0.30937267  1
  W  W24  1  0.66666667  0.33333333  0.47580233  1
  W  W25  1  0.00000000  0.00000000  0.35769500  1
  W  W26  1  0.00000000  0.00000000  0.64270600  1
  W  W27  1  0.33333333  0.66666667  0.80913567  1
  W  W28  1  0.66666667  0.33333333  0.69102833  1
  W  W29  1  0.66666667  0.33333333  0.97603933  1
  O  O30  1  0.20512700  0.17736900  0.30659500  1
  O  O31  1  0.82263100  0.02775800  0.30659500  1
  O  O32  1  0.19875233  0.03008867  0.09012467  1
  O  O33  1  0.97224200  0.79487300  0.30659500  1
  O  O34  1  0.36300000  0.86785600  0.07773300  1
  O  O35  1  0.49868800  0.14054500  0.13990900  1
  O  O36  1  0.83133633  0.80124767  0.09012467  1
  O  O37  1  0.50485600  0.63700000  0.07773300  1
  O  O38  1  0.13214400  0.49514400  0.07773300  1
  O  O39  1  0.79744400  0.97271800  0.19278500  1
  O  O40  1  0.69391333  0.16619067  0.24166367  1
  O  O41  1  0.02728200  0.82472600  0.19278500  1
  O  O42  1  0.64185700  0.50131200  0.13990900  1
  O  O43  1  0.96991133  0.16866367  0.09012467  1
  O  O44  1  0.85945500  0.35814300  0.13990900  1
  O  O45  1  0.52961700  0.83703600  0.25680400  1
  O  O46  1  0.16296400  0.69258100  0.25680400  1
  O  O47  1  0.83380933  0.52772267  0.24166367  1
  O  O48  1  0.17527400  0.20255600  0.19278500  1
  O  O49  1  0.30741900  0.47038300  0.25680400  1
  O  O50  1  0.69411900  0.53469500  0.02579800  1
  O  O51  1  0.47227733  0.30608667  0.24166367  1
  O  O52  1  0.84057600  0.30588100  0.02579800  1
  O  O53  1  0.46530500  0.15942400  0.02579800  1
  O  O54  1  0.87179367  0.51070233  0.63992833  1
  O  O55  1  0.48929767  0.36109133  0.63992833  1
  O  O56  1  0.86541900  0.36342200  0.42345800  1
  O  O57  1  0.63890867  0.12820633  0.63992833  1
  O  O58  1  0.02966667  0.20118933  0.41106633  1
  O  O59  1  0.16535467  0.47387833  0.47324233  1
  O  O60  1  0.49800300  0.13458100  0.42345800  1
  O  O61  1  0.17152267  0.97033333  0.41106633  1
  O  O62  1  0.79881067  0.82847733  0.41106633  1
  O  O63  1  0.46411067  0.30605133  0.52611833  1
  O  O64  1  0.36058000  0.49952400  0.57499700  1
  O  O65  1  0.69394867  0.15805933  0.52611833  1
  O  O66  1  0.30852367  0.83464533  0.47324233  1
  O  O67  1  0.63657800  0.50199700  0.42345800  1
  O  O68  1  0.52612167  0.69147633  0.47324233  1
  O  O69  1  0.19628367  0.17036933  0.59013733  1
  O  O70  1  0.82963067  0.02591433  0.59013733  1
  O  O71  1  0.50047600  0.86105600  0.57499700  1
  O  O72  1  0.84194067  0.53588933  0.52611833  1
  O  O73  1  0.97408567  0.80371633  0.59013733  1
  O  O74  1  0.36078567  0.86802833  0.35913133  1
  O  O75  1  0.13894400  0.63942000  0.57499700  1
  O  O76  1  0.50724267  0.63921433  0.35913133  1
  O  O77  1  0.13197167  0.49275733  0.35913133  1
  O  O78  1  0.53846033  0.84403567  0.97326167  1
  O  O79  1  0.15596433  0.69442467  0.97326167  1
  O  O80  1  0.53208567  0.69675533  0.75679133  1
  O  O81  1  0.30557533  0.46153967  0.97326167  1
  O  O82  1  0.69633333  0.53452267  0.74439967  1
  O  O83  1  0.83202133  0.80721167  0.80657567  1
  O  O84  1  0.16466967  0.46791433  0.75679133  1
  O  O85  1  0.83818933  0.30366667  0.74439967  1
  O  O86  1  0.46547733  0.16181067  0.74439967  1
  O  O87  1  0.13077733  0.63938467  0.85945167  1
  O  O88  1  0.02724667  0.83285733  0.90833033  1
  O  O89  1  0.36061533  0.49139267  0.85945167  1
  O  O90  1  0.97519033  0.16797867  0.80657567  1
  O  O91  1  0.30324467  0.83533033  0.75679133  1
  O  O92  1  0.19278833  0.02480967  0.80657567  1
  O  O93  1  0.86295033  0.50370267  0.92347067  1
  O  O94  1  0.49629733  0.35924767  0.92347067  1
  O  O95  1  0.16714267  0.19438933  0.90833033  1
  O  O96  1  0.50860733  0.86922267  0.85945167  1
  O  O97  1  0.64075233  0.13704967  0.92347067  1
  O  O98  1  0.02745233  0.20136167  0.69246467  1
  O  O99  1  0.80561067  0.97275333  0.90833033  1
  O  O100  1  0.17390933  0.97254767  0.69246467  1
  O  O101  1  0.79863833  0.82609067  0.69246467  1
