# generated using pymatgen
data_Cr2Fe3Ni(PO4)6
_symmetry_space_group_name_H-M   'P 1'
_cell_length_a   8.62801558
_cell_length_b   8.62801558
_cell_length_c   20.28264838
_cell_angle_alpha   90.00000000
_cell_angle_beta   90.00000000
_cell_angle_gamma   120.00000000
_symmetry_Int_Tables_number   1
_chemical_formula_structural   Cr2Fe3Ni(PO4)6
_chemical_formula_sum   'Cr6 Fe9 Ni3 P18 O72'
_cell_volume   1307.60669296
_cell_formula_units_Z   3
loop_
 _symmetry_equiv_pos_site_id
 _symmetry_equiv_pos_as_xyz
  1  'x, y, z'
loop_
 _atom_site_type_symbol
 _atom_site_label
 _atom_site_symmetry_multiplicity
 _atom_site_fract_x
 _atom_site_fract_y
 _atom_site_fract_z
 _atom_site_occupancy
  Cr  Cr0  1  0.33333333  0.66666667  0.66569567  1
  Cr  Cr1  1  0.33333333  0.66666667  0.16611467  1
  Cr  Cr2  1  0.00000000  0.00000000  0.99902900  1
  Cr  Cr3  1  0.00000000  0.00000000  0.49944800  1
  Cr  Cr4  1  0.66666667  0.33333333  0.33236233  1
  Cr  Cr5  1  0.66666667  0.33333333  0.83278133  1
  Fe  Fe6  1  0.33333333  0.66666667  0.81243767  1
  Fe  Fe7  1  0.33333333  0.66666667  0.01973667  1
  Fe  Fe8  1  0.33333333  0.66666667  0.31344067  1
  Fe  Fe9  1  0.00000000  0.00000000  0.14577100  1
  Fe  Fe10  1  0.00000000  0.00000000  0.35307000  1
  Fe  Fe11  1  0.00000000  0.00000000  0.64677400  1
  Fe  Fe12  1  0.66666667  0.33333333  0.47910433  1
  Fe  Fe13  1  0.66666667  0.33333333  0.68640333  1
  Fe  Fe14  1  0.66666667  0.33333333  0.98010733  1
  Ni  Ni15  1  0.33333333  0.66666667  0.52323467  1
  Ni  Ni16  1  0.00000000  0.00000000  0.85656800  1
  Ni  Ni17  1  0.66666667  0.33333333  0.18990133  1
  P  P18  1  0.66681567  0.63189033  0.08399333  1
  P  P19  1  0.96507467  0.33318433  0.08399333  1
  P  P20  1  0.36810967  0.03492533  0.08399333  1
  P  P21  1  0.30008100  0.29946700  0.24964200  1
  P  P22  1  0.70053300  0.00061400  0.24964200  1
  P  P23  1  0.99938600  0.69991900  0.24964200  1
  P  P24  1  0.33348233  0.96522367  0.41732667  1
  P  P25  1  0.63174133  0.66651767  0.41732667  1
  P  P26  1  0.03477633  0.36825867  0.41732667  1
  P  P27  1  0.96674767  0.63280033  0.58297533  1
  P  P28  1  0.36719967  0.33394733  0.58297533  1
  P  P29  1  0.66605267  0.03325233  0.58297533  1
  P  P30  1  0.00014900  0.29855700  0.75066000  1
  P  P31  1  0.29840800  0.99985100  0.75066000  1
  P  P32  1  0.70144300  0.70159200  0.75066000  1
  P  P33  1  0.63341433  0.96613367  0.91630867  1
  P  P34  1  0.03386633  0.66728067  0.91630867  1
  P  P35  1  0.33271933  0.36658567  0.91630867  1
  O  O36  1  0.34881233  0.47523967  0.97779367  1
  O  O37  1  0.52476033  0.87357267  0.97779367  1
  O  O38  1  0.83202433  0.82428367  0.07114667  1
  O  O39  1  0.12642733  0.65118767  0.97779367  1
  O  O40  1  0.67704200  0.54258800  0.14631900  1
  O  O41  1  0.50114433  0.66054867  0.09419967  1
  O  O42  1  0.99225933  0.16797567  0.07114667  1
  O  O43  1  0.15940433  0.49885567  0.09419967  1
  O  O44  1  0.20689167  0.19288433  0.18787833  1
  O  O45  1  0.33945133  0.84059567  0.09419967  1
  O  O46  1  0.48952300  0.32511800  0.26248000  1
  O  O47  1  0.80711567  0.01400733  0.18787833  1
  O  O48  1  0.86554600  0.32295800  0.14631900  1
  O  O49  1  0.17571633  0.00774067  0.07114667  1
  O  O50  1  0.32406567  0.49085233  0.23775733  1
  O  O51  1  0.45741200  0.13445400  0.14631900  1
  O  O52  1  0.50914767  0.83321333  0.23775733  1
  O  O53  1  0.67488200  0.16440500  0.26248000  1
  O  O54  1  0.16678667  0.67593433  0.23775733  1
  O  O55  1  0.98599267  0.79310833  0.18787833  1
  O  O56  1  0.53937133  0.67986267  0.35523667  1
  O  O57  1  0.83559500  0.51047700  0.26248000  1
  O  O58  1  0.14049133  0.46062867  0.35523667  1
  O  O59  1  0.32013733  0.85950867  0.35523667  1
  O  O60  1  0.01547900  0.80857300  0.31112700  1
  O  O61  1  0.19142700  0.20690600  0.31112700  1
  O  O62  1  0.49869100  0.15761700  0.40448000  1
  O  O63  1  0.79309400  0.98452100  0.31112700  1
  O  O64  1  0.34370867  0.87592133  0.47965233  1
  O  O65  1  0.16781100  0.99388200  0.42753300  1
  O  O66  1  0.65892600  0.50130900  0.40448000  1
  O  O67  1  0.82607100  0.83218900  0.42753300  1
  O  O68  1  0.87355833  0.52621767  0.52121167  1
  O  O69  1  0.00611800  0.17392900  0.42753300  1
  O  O70  1  0.15618967  0.65845133  0.59581333  1
  O  O71  1  0.47378233  0.34734067  0.52121167  1
  O  O72  1  0.53221267  0.65629133  0.47965233  1
  O  O73  1  0.84238300  0.34107400  0.40448000  1
  O  O74  1  0.99073233  0.82418567  0.57109067  1
  O  O75  1  0.12407867  0.46778733  0.47965233  1
  O  O76  1  0.17581433  0.16654667  0.57109067  1
  O  O77  1  0.34154867  0.49773833  0.59581333  1
  O  O78  1  0.83345333  0.00926767  0.57109067  1
  O  O79  1  0.65265933  0.12644167  0.52121167  1
  O  O80  1  0.20603800  0.01319600  0.68857000  1
  O  O81  1  0.50226167  0.84381033  0.59581333  1
  O  O82  1  0.80715800  0.79396200  0.68857000  1
  O  O83  1  0.98680400  0.19284200  0.68857000  1
  O  O84  1  0.68214567  0.14190633  0.64446033  1
  O  O85  1  0.85809367  0.54023933  0.64446033  1
  O  O86  1  0.16535767  0.49095033  0.73781333  1
  O  O87  1  0.45976067  0.31785433  0.64446033  1
  O  O88  1  0.01037533  0.20925467  0.81298567  1
  O  O89  1  0.83447767  0.32721533  0.76086633  1
  O  O90  1  0.32559267  0.83464233  0.73781333  1
  O  O91  1  0.49273767  0.16552233  0.76086633  1
  O  O92  1  0.54022500  0.85955100  0.85454500  1
  O  O93  1  0.67278467  0.50726233  0.76086633  1
  O  O94  1  0.82285633  0.99178467  0.92914667  1
  O  O95  1  0.14044900  0.68067400  0.85454500  1
  O  O96  1  0.19887933  0.98962467  0.81298567  1
  O  O97  1  0.50904967  0.67440733  0.73781333  1
  O  O98  1  0.65739900  0.15751900  0.90442400  1
  O  O99  1  0.79074533  0.80112067  0.81298567  1
  O  O100  1  0.84248100  0.49988000  0.90442400  1
  O  O101  1  0.00821533  0.83107167  0.92914667  1
  O  O102  1  0.50012000  0.34260100  0.90442400  1
  O  O103  1  0.31932600  0.45977500  0.85454500  1
  O  O104  1  0.87270467  0.34652933  0.02190333  1
  O  O105  1  0.16892833  0.17714367  0.92914667  1
  O  O106  1  0.47382467  0.12729533  0.02190333  1
  O  O107  1  0.65347067  0.52617533  0.02190333  1
