# generated using pymatgen
data_Na5Ti12O24
_symmetry_space_group_name_H-M   'P 1'
_cell_length_a   5.51983200
_cell_length_b   8.97734700
_cell_length_c   9.53170805
_cell_angle_alpha   90.00000000
_cell_angle_beta   90.15315026
_cell_angle_gamma   90.00000000
_symmetry_Int_Tables_number   1
_chemical_formula_structural   Na5Ti12O24
_chemical_formula_sum   'Na5 Ti12 O24'
_cell_volume   472.32730472
_cell_formula_units_Z   1
loop_
 _symmetry_equiv_pos_site_id
 _symmetry_equiv_pos_as_xyz
  1  'x, y, z'
loop_
 _atom_site_type_symbol
 _atom_site_label
 _atom_site_symmetry_multiplicity
 _atom_site_fract_x
 _atom_site_fract_y
 _atom_site_fract_z
 _atom_site_occupancy
  Na  Na0  1  0.45674100  0.50000000  0.02186100  1
  Na  Na1  1  0.53731500  0.00000000  0.97526100  1
  Na  Na2  1  0.96116700  0.00000000  0.48038700  1
  Na  Na3  1  0.95455000  0.66483200  0.47695200  1
  Na  Na4  1  0.95455000  0.33516800  0.47695200  1
  Ti  Ti5  1  0.00405500  0.50000000  0.85197300  1
  Ti  Ti6  1  0.01409600  0.17326300  0.85441900  1
  Ti  Ti7  1  0.01409600  0.82673700  0.85441900  1
  Ti  Ti8  1  0.48756000  0.82941300  0.35285400  1
  Ti  Ti9  1  0.47917700  0.50000000  0.35445000  1
  Ti  Ti10  1  0.48756000  0.17058700  0.35285400  1
  Ti  Ti11  1  0.50582800  0.66616900  0.64846700  1
  Ti  Ti12  1  0.51281800  0.00000000  0.64270700  1
  Ti  Ti13  1  0.50582800  0.33383100  0.64846700  1
  Ti  Ti14  1  0.98955100  0.00000000  0.14417400  1
  Ti  Ti15  1  0.98170100  0.32486400  0.13689300  1
  Ti  Ti16  1  0.98170100  0.67513600  0.13689300  1
  O  O17  1  0.17884400  0.67115900  0.96092900  1
  O  O18  1  0.17884400  0.32884100  0.96092900  1
  O  O19  1  0.15478200  0.00000000  0.96041700  1
  O  O20  1  0.18506200  0.16776500  0.23237000  1
  O  O21  1  0.18506200  0.83223500  0.23237000  1
  O  O22  1  0.19679600  0.50000000  0.22725600  1
  O  O23  1  0.30050100  0.16225200  0.72454500  1
  O  O24  1  0.30050100  0.83774800  0.72454500  1
  O  O25  1  0.30056500  0.50000000  0.72899100  1
  O  O26  1  0.33376800  0.66888500  0.46593300  1
  O  O27  1  0.33376800  0.33111500  0.46593300  1
  O  O28  1  0.34037400  0.00000000  0.45842600  1
  O  O29  1  0.67550800  0.50000000  0.54156400  1
  O  O30  1  0.67944700  0.16736400  0.53765500  1
  O  O31  1  0.67944700  0.83263600  0.53765500  1
  O  O32  1  0.69810400  0.00000000  0.27345400  1
  O  O33  1  0.69996300  0.66432100  0.27607800  1
  O  O34  1  0.69996300  0.33567900  0.27607800  1
  O  O35  1  0.80451400  0.66827000  0.77108900  1
  O  O36  1  0.80451400  0.33173000  0.77108900  1
  O  O37  1  0.79767700  0.00000000  0.77386200  1
  O  O38  1  0.81616000  0.17047800  0.03541600  1
  O  O39  1  0.83948600  0.50000000  0.03761600  1
  O  O40  1  0.81616000  0.82952200  0.03541600  1
