# generated using pymatgen
data_LiFePO4
_symmetry_space_group_name_H-M   'P 1'
_cell_length_a   5.77070222
_cell_length_b   9.48049325
_cell_length_c   11.16970906
_cell_angle_alpha   90.00000000
_cell_angle_beta   90.00000000
_cell_angle_gamma   90.00000000
_symmetry_Int_Tables_number   1
_chemical_formula_structural   LiFePO4
_chemical_formula_sum   'Li8 Fe8 P8 O32'
_cell_volume   611.08476901
_cell_formula_units_Z   8
loop_
 _symmetry_equiv_pos_site_id
 _symmetry_equiv_pos_as_xyz
  1  'x, y, z'
loop_
 _atom_site_type_symbol
 _atom_site_label
 _atom_site_symmetry_multiplicity
 _atom_site_fract_x
 _atom_site_fract_y
 _atom_site_fract_z
 _atom_site_occupancy
  Li  Li0  1  0.50000000  0.93395000  0.00000000  1
  Li  Li1  1  0.25000000  0.68395000  0.25000000  1
  Li  Li2  1  0.50000000  0.43395000  0.50000000  1
  Li  Li3  1  0.25000000  0.18395000  0.75000000  1
  Li  Li4  1  0.00000000  0.43395000  0.00000000  1
  Li  Li5  1  0.75000000  0.18395000  0.25000000  1
  Li  Li6  1  0.00000000  0.93395000  0.50000000  1
  Li  Li7  1  0.75000000  0.68395000  0.75000000  1
  Fe  Fe8  1  0.50000000  0.31219850  0.00000000  1
  Fe  Fe9  1  0.25000000  0.06219850  0.25000000  1
  Fe  Fe10  1  0.50000000  0.81219850  0.50000000  1
  Fe  Fe11  1  0.25000000  0.56219850  0.75000000  1
  Fe  Fe12  1  0.00000000  0.81219850  0.00000000  1
  Fe  Fe13  1  0.75000000  0.56219850  0.25000000  1
  Fe  Fe14  1  0.00000000  0.31219850  0.50000000  1
  Fe  Fe15  1  0.75000000  0.06219850  0.75000000  1
  P  P16  1  0.50000000  0.62953200  0.00000000  1
  P  P17  1  0.25000000  0.37953200  0.25000000  1
  P  P18  1  0.50000000  0.12953200  0.50000000  1
  P  P19  1  0.25000000  0.87953200  0.75000000  1
  P  P20  1  0.00000000  0.12953200  0.00000000  1
  P  P21  1  0.75000000  0.87953200  0.25000000  1
  P  P22  1  0.00000000  0.62953200  0.50000000  1
  P  P23  1  0.75000000  0.37953200  0.75000000  1
  O  O24  1  0.85666950  0.02457750  0.92027200  1
  O  O25  1  0.66452950  0.72467600  0.92644250  1
  O  O26  1  0.58547050  0.97467600  0.17644250  1
  O  O27  1  0.39333050  0.27457750  0.17027200  1
  O  O28  1  0.33547050  0.72467600  0.07355750  1
  O  O29  1  0.14333050  0.02457750  0.07972800  1
  O  O30  1  0.10666950  0.27457750  0.32972800  1
  O  O31  1  0.91452950  0.97467600  0.32355750  1
  O  O32  1  0.85666950  0.52457750  0.42027200  1
  O  O33  1  0.66452950  0.22467600  0.42644250  1
  O  O34  1  0.58547050  0.47467600  0.67644250  1
  O  O35  1  0.39333050  0.77457750  0.67027200  1
  O  O36  1  0.33547050  0.22467600  0.57355750  1
  O  O37  1  0.14333050  0.52457750  0.57972800  1
  O  O38  1  0.10666950  0.77457750  0.82972800  1
  O  O39  1  0.91452950  0.47467600  0.82355750  1
  O  O40  1  0.35666950  0.52457750  0.92027200  1
  O  O41  1  0.16452950  0.22467600  0.92644250  1
  O  O42  1  0.08547050  0.47467600  0.17644250  1
  O  O43  1  0.89333050  0.77457750  0.17027200  1
  O  O44  1  0.83547050  0.22467600  0.07355750  1
  O  O45  1  0.64333050  0.52457750  0.07972800  1
  O  O46  1  0.60666950  0.77457750  0.32972800  1
  O  O47  1  0.41452950  0.47467600  0.32355750  1
  O  O48  1  0.35666950  0.02457750  0.42027200  1
  O  O49  1  0.16452950  0.72467600  0.42644250  1
  O  O50  1  0.08547050  0.97467600  0.67644250  1
  O  O51  1  0.89333050  0.27457750  0.67027200  1
  O  O52  1  0.83547050  0.72467600  0.57355750  1
  O  O53  1  0.64333050  0.02457750  0.57972800  1
  O  O54  1  0.60666950  0.27457750  0.82972800  1
  O  O55  1  0.41452950  0.97467600  0.82355750  1
