# generated using pymatgen
data_Li5Ni7O12
_symmetry_space_group_name_H-M   'P 1'
_cell_length_a   5.03737600
_cell_length_b   8.72295000
_cell_length_c   9.61046973
_cell_angle_alpha   90.00000000
_cell_angle_beta   100.08373727
_cell_angle_gamma   90.00000000
_symmetry_Int_Tables_number   1
_chemical_formula_structural   Li5Ni7O12
_chemical_formula_sum   'Li10 Ni14 O24'
_cell_volume   415.76835375
_cell_formula_units_Z   2
loop_
 _symmetry_equiv_pos_site_id
 _symmetry_equiv_pos_as_xyz
  1  'x, y, z'
loop_
 _atom_site_type_symbol
 _atom_site_label
 _atom_site_symmetry_multiplicity
 _atom_site_fract_x
 _atom_site_fract_y
 _atom_site_fract_z
 _atom_site_occupancy
  Li  Li0  1  0.24899850  0.91017550  0.25143800  1
  Li  Li1  1  0.25082050  0.08736050  0.74930300  1
  Li  Li2  1  0.75100150  0.91017550  0.74856200  1
  Li  Li3  1  0.74917950  0.08736050  0.25069700  1
  Li  Li4  1  0.50000000  0.41562700  0.50000000  1
  Li  Li5  1  0.74899850  0.41017550  0.25143800  1
  Li  Li6  1  0.75082050  0.58736050  0.74930300  1
  Li  Li7  1  0.25100150  0.41017550  0.74856200  1
  Li  Li8  1  0.24917950  0.58736050  0.25069700  1
  Li  Li9  1  0.00000000  0.91562700  0.50000000  1
  Ni  Ni10  1  0.50000000  0.58347600  0.00000000  1
  Ni  Ni11  1  0.74825850  0.25164050  0.74775600  1
  Ni  Ni12  1  0.50000000  0.75447400  0.50000000  1
  Ni  Ni13  1  0.25174150  0.25164050  0.25224400  1
  Ni  Ni14  1  0.50000000  0.91554100  0.00000000  1
  Ni  Ni15  1  0.50000000  0.08206300  0.50000000  1
  Ni  Ni16  1  0.50000000  0.24829100  0.00000000  1
  Ni  Ni17  1  0.00000000  0.08347600  0.00000000  1
  Ni  Ni18  1  0.24825850  0.75164050  0.74775600  1
  Ni  Ni19  1  0.00000000  0.25447400  0.50000000  1
  Ni  Ni20  1  0.75174150  0.75164050  0.25224400  1
  Ni  Ni21  1  0.00000000  0.41554100  0.00000000  1
  Ni  Ni22  1  0.00000000  0.58206300  0.50000000  1
  Ni  Ni23  1  0.00000000  0.74829100  0.00000000  1
  O  O24  1  0.87664900  0.10412500  0.61803200  1
  O  O25  1  0.12335100  0.10412500  0.38196800  1
  O  O26  1  0.39140950  0.74939150  0.12929000  1
  O  O27  1  0.60859050  0.74939150  0.87071000  1
  O  O28  1  0.39256750  0.91357550  0.61308600  1
  O  O29  1  0.60743250  0.91357550  0.38691400  1
  O  O30  1  0.38176300  0.09461600  0.11572600  1
  O  O31  1  0.61823700  0.09461600  0.88427400  1
  O  O32  1  0.39377150  0.23877150  0.62078200  1
  O  O33  1  0.60622850  0.23877150  0.37921800  1
  O  O34  1  0.88341200  0.90060800  0.12004800  1
  O  O35  1  0.11658800  0.90060800  0.87995200  1
  O  O36  1  0.37664900  0.60412500  0.61803200  1
  O  O37  1  0.62335100  0.60412500  0.38196800  1
  O  O38  1  0.89140950  0.24939150  0.12929000  1
  O  O39  1  0.10859050  0.24939150  0.87071000  1
  O  O40  1  0.89256750  0.41357550  0.61308600  1
  O  O41  1  0.10743250  0.41357550  0.38691400  1
  O  O42  1  0.88176300  0.59461600  0.11572600  1
  O  O43  1  0.11823700  0.59461600  0.88427400  1
  O  O44  1  0.89377150  0.73877150  0.62078200  1
  O  O45  1  0.10622850  0.73877150  0.37921800  1
  O  O46  1  0.38341200  0.40060800  0.12004800  1
  O  O47  1  0.61658800  0.40060800  0.87995200  1
