# generated using pymatgen
data_Li4Ti3Mn2Sn3O16
_symmetry_space_group_name_H-M   'P 1'
_cell_length_a   10.68848122
_cell_length_b   6.13727180
_cell_length_c   10.04155058
_cell_angle_alpha   90.00000000
_cell_angle_beta   90.12102487
_cell_angle_gamma   90.00000000
_symmetry_Int_Tables_number   1
_chemical_formula_structural   Li4Ti3Mn2Sn3O16
_chemical_formula_sum   'Li8 Ti6 Mn4 Sn6 O32'
_cell_volume   658.70531345
_cell_formula_units_Z   2
loop_
 _symmetry_equiv_pos_site_id
 _symmetry_equiv_pos_as_xyz
  1  'x, y, z'
loop_
 _atom_site_type_symbol
 _atom_site_label
 _atom_site_symmetry_multiplicity
 _atom_site_fract_x
 _atom_site_fract_y
 _atom_site_fract_z
 _atom_site_occupancy
  Li  Li0  1  0.17024200  0.50000000  0.11404700  1
  Li  Li1  1  0.48837200  0.50000000  0.00348200  1
  Li  Li2  1  0.49235400  0.50000000  0.49851600  1
  Li  Li3  1  0.33630500  0.00000000  0.60858300  1
  Li  Li4  1  0.67024200  0.00000000  0.11404700  1
  Li  Li5  1  0.98837200  0.00000000  0.00348200  1
  Li  Li6  1  0.99235400  0.00000000  0.49851600  1
  Li  Li7  1  0.83630500  0.50000000  0.60858300  1
  Ti  Ti8  1  0.33065650  0.50000000  0.78108600  1
  Ti  Ti9  1  0.41601600  0.75383300  0.28394400  1
  Ti  Ti10  1  0.41601600  0.24616700  0.28394400  1
  Ti  Ti11  1  0.83065650  0.00000000  0.78108600  1
  Ti  Ti12  1  0.91601600  0.25383300  0.28394400  1
  Ti  Ti13  1  0.91601600  0.74616700  0.28394400  1
  Mn  Mn14  1  0.16944600  0.50000000  0.49880000  1
  Mn  Mn15  1  0.33581250  0.00000000  0.00333200  1
  Mn  Mn16  1  0.66944600  0.00000000  0.49880000  1
  Mn  Mn17  1  0.83581250  0.50000000  0.00333200  1
  Sn  Sn18  1  0.08425300  0.74717800  0.78552200  1
  Sn  Sn19  1  0.08425300  0.25282200  0.78552200  1
  Sn  Sn20  1  0.16921350  0.00000000  0.28545700  1
  Sn  Sn21  1  0.58425300  0.24717800  0.78552200  1
  Sn  Sn22  1  0.58425300  0.75282200  0.78552200  1
  Sn  Sn23  1  0.66921350  0.50000000  0.28545700  1
  O  O24  1  0.07272250  0.76514550  0.39470800  1
  O  O25  1  0.01670650  0.50000000  0.66511700  1
  O  O26  1  0.17324200  0.50000000  0.90008700  1
  O  O27  1  0.49461900  0.50000000  0.68008100  1
  O  O28  1  0.49402200  0.50000000  0.18457400  1
  O  O29  1  0.07272250  0.23485450  0.39470800  1
  O  O30  1  0.24893550  0.72245550  0.67194900  1
  O  O31  1  0.24893550  0.27754450  0.67194900  1
  O  O32  1  0.15260750  0.00000000  0.90219100  1
  O  O33  1  0.34489600  0.50000000  0.38758500  1
  O  O34  1  0.26465900  0.23031400  0.17212400  1
  O  O35  1  0.26465900  0.76968600  0.17212400  1
  O  O36  1  0.34216100  0.00000000  0.39566900  1
  O  O37  1  0.41654650  0.27077550  0.89361100  1
  O  O38  1  0.48352550  0.00000000  0.17980900  1
  O  O39  1  0.41654650  0.72922450  0.89361100  1
  O  O40  1  0.57272250  0.26514550  0.39470800  1
  O  O41  1  0.51670650  0.00000000  0.66511700  1
  O  O42  1  0.67324200  0.00000000  0.90008700  1
  O  O43  1  0.99461900  0.00000000  0.68008100  1
  O  O44  1  0.99402200  0.00000000  0.18457400  1
  O  O45  1  0.57272250  0.73485450  0.39470800  1
  O  O46  1  0.74893550  0.22245550  0.67194900  1
  O  O47  1  0.74893550  0.77754450  0.67194900  1
  O  O48  1  0.65260750  0.50000000  0.90219100  1
  O  O49  1  0.84489600  0.00000000  0.38758500  1
  O  O50  1  0.76465900  0.73031400  0.17212400  1
  O  O51  1  0.76465900  0.26968600  0.17212400  1
  O  O52  1  0.84216100  0.50000000  0.39566900  1
  O  O53  1  0.91654650  0.77077550  0.89361100  1
  O  O54  1  0.98352550  0.50000000  0.17980900  1
  O  O55  1  0.91654650  0.22922450  0.89361100  1
