# generated using pymatgen
data_Na4Fe2As(CO4)4
_symmetry_space_group_name_H-M   'P 1'
_cell_length_a   13.86633200
_cell_length_b   13.96739800
_cell_length_c   14.45047600
_cell_angle_alpha   90.00000000
_cell_angle_beta   90.00000000
_cell_angle_gamma   90.00000000
_symmetry_Int_Tables_number   1
_chemical_formula_structural   Na4Fe2As(CO4)4
_chemical_formula_sum   'Na32 Fe16 As8 C32 O128'
_cell_volume   2798.71873990
_cell_formula_units_Z   8
loop_
 _symmetry_equiv_pos_site_id
 _symmetry_equiv_pos_as_xyz
  1  'x, y, z'
loop_
 _atom_site_type_symbol
 _atom_site_label
 _atom_site_symmetry_multiplicity
 _atom_site_fract_x
 _atom_site_fract_y
 _atom_site_fract_z
 _atom_site_occupancy
  Na  Na0  1  0.75000000  0.46397900  0.25000000  1
  Na  Na1  1  0.96396000  0.25000000  0.25000000  1
  Na  Na2  1  0.71396000  0.00000000  0.00000000  1
  Na  Na3  1  0.50000000  0.21397900  0.00000000  1
  Na  Na4  1  0.75000000  0.03602100  0.25000000  1
  Na  Na5  1  0.53604000  0.25000000  0.25000000  1
  Na  Na6  1  0.28604000  0.00000000  0.00000000  1
  Na  Na7  1  0.50000000  0.78602100  0.00000000  1
  Na  Na8  1  0.75000000  0.96397900  0.75000000  1
  Na  Na9  1  0.96396000  0.75000000  0.75000000  1
  Na  Na10  1  0.71396000  0.50000000  0.50000000  1
  Na  Na11  1  0.50000000  0.71397900  0.50000000  1
  Na  Na12  1  0.75000000  0.53602100  0.75000000  1
  Na  Na13  1  0.53604000  0.75000000  0.75000000  1
  Na  Na14  1  0.28604000  0.50000000  0.50000000  1
  Na  Na15  1  0.50000000  0.28602100  0.50000000  1
  Na  Na16  1  0.25000000  0.46397900  0.75000000  1
  Na  Na17  1  0.46396000  0.25000000  0.75000000  1
  Na  Na18  1  0.21396000  0.00000000  0.50000000  1
  Na  Na19  1  0.00000000  0.21397900  0.50000000  1
  Na  Na20  1  0.25000000  0.03602100  0.75000000  1
  Na  Na21  1  0.03604000  0.25000000  0.75000000  1
  Na  Na22  1  0.78604000  0.00000000  0.50000000  1
  Na  Na23  1  0.00000000  0.78602100  0.50000000  1
  Na  Na24  1  0.25000000  0.96397900  0.25000000  1
  Na  Na25  1  0.46396000  0.75000000  0.25000000  1
  Na  Na26  1  0.21396000  0.50000000  0.00000000  1
  Na  Na27  1  0.00000000  0.71397900  0.00000000  1
  Na  Na28  1  0.25000000  0.53602100  0.25000000  1
  Na  Na29  1  0.03604000  0.75000000  0.25000000  1
  Na  Na30  1  0.78604000  0.50000000  0.00000000  1
  Na  Na31  1  0.00000000  0.28602100  0.00000000  1
  Fe  Fe32  1  0.62500000  0.62500000  0.12500000  1
  Fe  Fe33  1  0.87500000  0.87500000  0.12500000  1
  Fe  Fe34  1  0.87500000  0.62500000  0.37500000  1
  Fe  Fe35  1  0.62500000  0.87500000  0.37500000  1
  Fe  Fe36  1  0.62500000  0.12500000  0.62500000  1
  Fe  Fe37  1  0.87500000  0.37500000  0.62500000  1
  Fe  Fe38  1  0.87500000  0.12500000  0.87500000  1
  Fe  Fe39  1  0.62500000  0.37500000  0.87500000  1
  Fe  Fe40  1  0.12500000  0.62500000  0.62500000  1
  Fe  Fe41  1  0.37500000  0.87500000  0.62500000  1
  Fe  Fe42  1  0.37500000  0.62500000  0.87500000  1
  Fe  Fe43  1  0.12500000  0.87500000  0.87500000  1
  Fe  Fe44  1  0.12500000  0.12500000  0.12500000  1
  Fe  Fe45  1  0.37500000  0.37500000  0.12500000  1
  Fe  Fe46  1  0.37500000  0.12500000  0.37500000  1
  Fe  Fe47  1  0.12500000  0.37500000  0.37500000  1
  As  As48  1  0.50000000  0.00000000  0.00000000  1
  As  As49  1  0.75000000  0.25000000  0.25000000  1
  As  As50  1  0.50000000  0.50000000  0.50000000  1
  As  As51  1  0.75000000  0.75000000  0.75000000  1
  As  As52  1  0.00000000  0.00000000  0.50000000  1
  As  As53  1  0.25000000  0.25000000  0.75000000  1
  As  As54  1  0.00000000  0.50000000  0.00000000  1
  As  As55  1  0.25000000  0.75000000  0.25000000  1
  C  C56  1  0.90916850  0.41117900  0.41539250  1
  C  C57  1  0.15916850  0.16117900  0.33460750  1
  C  C58  1  0.59083150  0.41117900  0.08460750  1
  C  C59  1  0.90916850  0.08882100  0.08460750  1
  C  C60  1  0.34083150  0.16117900  0.16539250  1
  C  C61  1  0.65916850  0.83882100  0.16539250  1
  C  C62  1  0.59083150  0.08882100  0.41539250  1
  C  C63  1  0.84083150  0.83882100  0.33460750  1
  C  C64  1  0.90916850  0.91117900  0.91539250  1
  C  C65  1  0.15916850  0.66117900  0.83460750  1
  C  C66  1  0.59083150  0.91117900  0.58460750  1
  C  C67  1  0.90916850  0.58882100  0.58460750  1
  C  C68  1  0.34083150  0.66117900  0.66539250  1
  C  C69  1  0.65916850  0.33882100  0.66539250  1
  C  C70  1  0.59083150  0.58882100  0.91539250  1
  C  C71  1  0.84083150  0.33882100  0.83460750  1
  C  C72  1  0.40916850  0.41117900  0.91539250  1
  C  C73  1  0.65916850  0.16117900  0.83460750  1
  C  C74  1  0.09083150  0.41117900  0.58460750  1
  C  C75  1  0.40916850  0.08882100  0.58460750  1
  C  C76  1  0.84083150  0.16117900  0.66539250  1
  C  C77  1  0.15916850  0.83882100  0.66539250  1
  C  C78  1  0.09083150  0.08882100  0.91539250  1
  C  C79  1  0.34083150  0.83882100  0.83460750  1
  C  C80  1  0.40916850  0.91117900  0.41539250  1
  C  C81  1  0.65916850  0.66117900  0.33460750  1
  C  C82  1  0.09083150  0.91117900  0.08460750  1
  C  C83  1  0.40916850  0.58882100  0.08460750  1
  C  C84  1  0.84083150  0.66117900  0.16539250  1
  C  C85  1  0.15916850  0.33882100  0.16539250  1
  C  C86  1  0.09083150  0.58882100  0.41539250  1
  C  C87  1  0.34083150  0.33882100  0.33460750  1
  O  O88  1  0.39152100  0.98082750  0.35827550  1
  O  O89  1  0.07374150  0.92594150  0.43617200  1
  O  O90  1  0.35495550  0.89842750  0.48714100  1
  O  O91  1  0.10495550  0.14842750  0.26285900  1
  O  O92  1  0.14504450  0.89842750  0.01285900  1
  O  O93  1  0.23004700  0.10208850  0.35135750  1
  O  O94  1  0.42625850  0.92594150  0.06382800  1
  O  O95  1  0.92625850  0.07405850  0.43617200  1
  O  O96  1  0.73004700  0.89791150  0.14864250  1
  O  O97  1  0.85495550  0.10157250  0.01285900  1
  O  O98  1  0.14152100  0.23082750  0.39172450  1
  O  O99  1  0.57374150  0.07405850  0.06382800  1
  O  O100  1  0.10847900  0.98082750  0.14172450  1
  O  O101  1  0.89152100  0.01917250  0.14172450  1
  O  O102  1  0.98004700  0.35208850  0.39864250  1
  O  O103  1  0.26995300  0.10208850  0.14864250  1
  O  O104  1  0.48004700  0.64791150  0.10135750  1
  O  O105  1  0.76995300  0.89791150  0.35135750  1
  O  O106  1  0.35847900  0.23082750  0.10827550  1
  O  O107  1  0.64152100  0.76917250  0.10827550  1
  O  O108  1  0.67625850  0.17594150  0.18617200  1
  O  O109  1  0.60847900  0.01917250  0.35827550  1
  O  O110  1  0.39504450  0.14842750  0.23714100  1
  O  O111  1  0.51995300  0.35208850  0.10135750  1
  O  O112  1  0.82374150  0.17594150  0.31382800  1
  O  O113  1  0.82374150  0.32405850  0.18617200  1
  O  O114  1  0.01995300  0.64791150  0.39864250  1
  O  O115  1  0.60495550  0.85157250  0.23714100  1
  O  O116  1  0.64504450  0.10157250  0.48714100  1
  O  O117  1  0.89504450  0.85157250  0.26285900  1
  O  O118  1  0.67625850  0.32405850  0.31382800  1
  O  O119  1  0.85847900  0.76917250  0.39172450  1
  O  O120  1  0.39152100  0.48082750  0.85827550  1
  O  O121  1  0.07374150  0.42594150  0.93617200  1
  O  O122  1  0.35495550  0.39842750  0.98714100  1
  O  O123  1  0.10495550  0.64842750  0.76285900  1
  O  O124  1  0.14504450  0.39842750  0.51285900  1
  O  O125  1  0.23004700  0.60208850  0.85135750  1
  O  O126  1  0.42625850  0.42594150  0.56382800  1
  O  O127  1  0.92625850  0.57405850  0.93617200  1
  O  O128  1  0.73004700  0.39791150  0.64864250  1
  O  O129  1  0.85495550  0.60157250  0.51285900  1
  O  O130  1  0.14152100  0.73082750  0.89172450  1
  O  O131  1  0.57374150  0.57405850  0.56382800  1
  O  O132  1  0.10847900  0.48082750  0.64172450  1
  O  O133  1  0.89152100  0.51917250  0.64172450  1
  O  O134  1  0.98004700  0.85208850  0.89864250  1
  O  O135  1  0.26995300  0.60208850  0.64864250  1
  O  O136  1  0.48004700  0.14791150  0.60135750  1
  O  O137  1  0.76995300  0.39791150  0.85135750  1
  O  O138  1  0.35847900  0.73082750  0.60827550  1
  O  O139  1  0.64152100  0.26917250  0.60827550  1
  O  O140  1  0.67625850  0.67594150  0.68617200  1
  O  O141  1  0.60847900  0.51917250  0.85827550  1
  O  O142  1  0.39504450  0.64842750  0.73714100  1
  O  O143  1  0.51995300  0.85208850  0.60135750  1
  O  O144  1  0.82374150  0.67594150  0.81382800  1
  O  O145  1  0.82374150  0.82405850  0.68617200  1
  O  O146  1  0.01995300  0.14791150  0.89864250  1
  O  O147  1  0.60495550  0.35157250  0.73714100  1
  O  O148  1  0.64504450  0.60157250  0.98714100  1
  O  O149  1  0.89504450  0.35157250  0.76285900  1
  O  O150  1  0.67625850  0.82405850  0.81382800  1
  O  O151  1  0.85847900  0.26917250  0.89172450  1
  O  O152  1  0.89152100  0.98082750  0.85827550  1
  O  O153  1  0.57374150  0.92594150  0.93617200  1
  O  O154  1  0.85495550  0.89842750  0.98714100  1
  O  O155  1  0.60495550  0.14842750  0.76285900  1
  O  O156  1  0.64504450  0.89842750  0.51285900  1
  O  O157  1  0.73004700  0.10208850  0.85135750  1
  O  O158  1  0.92625850  0.92594150  0.56382800  1
  O  O159  1  0.42625850  0.07405850  0.93617200  1
  O  O160  1  0.23004700  0.89791150  0.64864250  1
  O  O161  1  0.35495550  0.10157250  0.51285900  1
  O  O162  1  0.64152100  0.23082750  0.89172450  1
  O  O163  1  0.07374150  0.07405850  0.56382800  1
  O  O164  1  0.60847900  0.98082750  0.64172450  1
  O  O165  1  0.39152100  0.01917250  0.64172450  1
  O  O166  1  0.48004700  0.35208850  0.89864250  1
  O  O167  1  0.76995300  0.10208850  0.64864250  1
  O  O168  1  0.98004700  0.64791150  0.60135750  1
  O  O169  1  0.26995300  0.89791150  0.85135750  1
  O  O170  1  0.85847900  0.23082750  0.60827550  1
  O  O171  1  0.14152100  0.76917250  0.60827550  1
  O  O172  1  0.17625850  0.17594150  0.68617200  1
  O  O173  1  0.10847900  0.01917250  0.85827550  1
  O  O174  1  0.89504450  0.14842750  0.73714100  1
  O  O175  1  0.01995300  0.35208850  0.60135750  1
  O  O176  1  0.32374150  0.17594150  0.81382800  1
  O  O177  1  0.32374150  0.32405850  0.68617200  1
  O  O178  1  0.51995300  0.64791150  0.89864250  1
  O  O179  1  0.10495550  0.85157250  0.73714100  1
  O  O180  1  0.14504450  0.10157250  0.98714100  1
  O  O181  1  0.39504450  0.85157250  0.76285900  1
  O  O182  1  0.17625850  0.32405850  0.81382800  1
  O  O183  1  0.35847900  0.76917250  0.89172450  1
  O  O184  1  0.89152100  0.48082750  0.35827550  1
  O  O185  1  0.57374150  0.42594150  0.43617200  1
  O  O186  1  0.85495550  0.39842750  0.48714100  1
  O  O187  1  0.60495550  0.64842750  0.26285900  1
  O  O188  1  0.64504450  0.39842750  0.01285900  1
  O  O189  1  0.73004700  0.60208850  0.35135750  1
  O  O190  1  0.92625850  0.42594150  0.06382800  1
  O  O191  1  0.42625850  0.57405850  0.43617200  1
  O  O192  1  0.23004700  0.39791150  0.14864250  1
  O  O193  1  0.35495550  0.60157250  0.01285900  1
  O  O194  1  0.64152100  0.73082750  0.39172450  1
  O  O195  1  0.07374150  0.57405850  0.06382800  1
  O  O196  1  0.60847900  0.48082750  0.14172450  1
  O  O197  1  0.39152100  0.51917250  0.14172450  1
  O  O198  1  0.48004700  0.85208850  0.39864250  1
  O  O199  1  0.76995300  0.60208850  0.14864250  1
  O  O200  1  0.98004700  0.14791150  0.10135750  1
  O  O201  1  0.26995300  0.39791150  0.35135750  1
  O  O202  1  0.85847900  0.73082750  0.10827550  1
  O  O203  1  0.14152100  0.26917250  0.10827550  1
  O  O204  1  0.17625850  0.67594150  0.18617200  1
  O  O205  1  0.10847900  0.51917250  0.35827550  1
  O  O206  1  0.89504450  0.64842750  0.23714100  1
  O  O207  1  0.01995300  0.85208850  0.10135750  1
  O  O208  1  0.32374150  0.67594150  0.31382800  1
  O  O209  1  0.32374150  0.82405850  0.18617200  1
  O  O210  1  0.51995300  0.14791150  0.39864250  1
  O  O211  1  0.10495550  0.35157250  0.23714100  1
  O  O212  1  0.14504450  0.60157250  0.48714100  1
  O  O213  1  0.39504450  0.35157250  0.26285900  1
  O  O214  1  0.17625850  0.82405850  0.31382800  1
  O  O215  1  0.35847900  0.26917250  0.39172450  1
