# generated using pymatgen
data_Na2FeO3
_symmetry_space_group_name_H-M   'P 1'
_cell_length_a   5.36212083
_cell_length_b   9.30498800
_cell_length_c   11.04068601
_cell_angle_alpha   90.00000000
_cell_angle_beta   99.80371065
_cell_angle_gamma   90.00000000
_symmetry_Int_Tables_number   1
_chemical_formula_structural   Na2FeO3
_chemical_formula_sum   'Na16 Fe8 O24'
_cell_volume   542.82476436
_cell_formula_units_Z   8
loop_
 _symmetry_equiv_pos_site_id
 _symmetry_equiv_pos_as_xyz
  1  'x, y, z'
loop_
 _atom_site_type_symbol
 _atom_site_label
 _atom_site_symmetry_multiplicity
 _atom_site_fract_x
 _atom_site_fract_y
 _atom_site_fract_z
 _atom_site_occupancy
  Na  Na0  1  0.25995500  0.57716000  0.50070800  1
  Na  Na1  1  0.25000000  0.75000000  0.00000000  1
  Na  Na2  1  0.00000000  0.91312900  0.75000000  1
  Na  Na3  1  0.75000000  0.75000000  0.50000000  1
  Na  Na4  1  0.74004500  0.57716000  0.99929200  1
  Na  Na5  1  0.75995500  0.92284000  0.00070800  1
  Na  Na6  1  0.50000000  0.58687100  0.25000000  1
  Na  Na7  1  0.24004500  0.92284000  0.49929200  1
  Na  Na8  1  0.75995500  0.07716000  0.50070800  1
  Na  Na9  1  0.75000000  0.25000000  0.00000000  1
  Na  Na10  1  0.50000000  0.41312900  0.75000000  1
  Na  Na11  1  0.25000000  0.25000000  0.50000000  1
  Na  Na12  1  0.24004500  0.07716000  0.99929200  1
  Na  Na13  1  0.25995500  0.42284000  0.00070800  1
  Na  Na14  1  0.00000000  0.08687100  0.25000000  1
  Na  Na15  1  0.74004500  0.42284000  0.49929200  1
  Fe  Fe16  1  0.00000000  0.75311500  0.25000000  1
  Fe  Fe17  1  0.00000000  0.57936500  0.75000000  1
  Fe  Fe18  1  0.50000000  0.92063500  0.25000000  1
  Fe  Fe19  1  0.50000000  0.74688500  0.75000000  1
  Fe  Fe20  1  0.50000000  0.25311500  0.25000000  1
  Fe  Fe21  1  0.50000000  0.07936500  0.75000000  1
  Fe  Fe22  1  0.00000000  0.42063500  0.25000000  1
  Fe  Fe23  1  0.00000000  0.24688500  0.75000000  1
  O  O24  1  0.33975000  0.59933600  0.85290400  1
  O  O25  1  0.08755900  0.58000200  0.14941600  1
  O  O26  1  0.14515600  0.72087400  0.64918100  1
  O  O27  1  0.91244100  0.58000200  0.35058400  1
  O  O28  1  0.83975000  0.90066400  0.35290400  1
  O  O29  1  0.64515600  0.77912600  0.14918100  1
  O  O30  1  0.85484400  0.72087400  0.85081900  1
  O  O31  1  0.66025000  0.59933600  0.64709600  1
  O  O32  1  0.58755900  0.91999800  0.64941600  1
  O  O33  1  0.35484400  0.77912600  0.35081900  1
  O  O34  1  0.41244100  0.91999800  0.85058400  1
  O  O35  1  0.16025000  0.90066400  0.14709600  1
  O  O36  1  0.83975000  0.09933600  0.85290400  1
  O  O37  1  0.58755900  0.08000200  0.14941600  1
  O  O38  1  0.64515600  0.22087400  0.64918100  1
  O  O39  1  0.41244100  0.08000200  0.35058400  1
  O  O40  1  0.33975000  0.40066400  0.35290400  1
  O  O41  1  0.14515600  0.27912600  0.14918100  1
  O  O42  1  0.35484400  0.22087400  0.85081900  1
  O  O43  1  0.16025000  0.09933600  0.64709600  1
  O  O44  1  0.08755900  0.41999800  0.64941600  1
  O  O45  1  0.85484400  0.27912600  0.35081900  1
  O  O46  1  0.91244100  0.41999800  0.85058400  1
  O  O47  1  0.66025000  0.40066400  0.14709600  1
