# generated using pymatgen
data_Li4Cr3Sn5O16
_symmetry_space_group_name_H-M   'P 1'
_cell_length_a   10.67663737
_cell_length_b   6.20590948
_cell_length_c   9.93853878
_cell_angle_alpha   90.00000000
_cell_angle_beta   90.28773113
_cell_angle_gamma   90.00000000
_symmetry_Int_Tables_number   1
_chemical_formula_structural   Li4Cr3Sn5O16
_chemical_formula_sum   'Li8 Cr6 Sn10 O32'
_cell_volume   658.50183450
_cell_formula_units_Z   2
loop_
 _symmetry_equiv_pos_site_id
 _symmetry_equiv_pos_as_xyz
  1  'x, y, z'
loop_
 _atom_site_type_symbol
 _atom_site_label
 _atom_site_symmetry_multiplicity
 _atom_site_fract_x
 _atom_site_fract_y
 _atom_site_fract_z
 _atom_site_occupancy
  Li  Li0  1  0.33110500  0.00000000  0.89026600  1
  Li  Li1  1  0.00995050  0.00000000  0.98857500  1
  Li  Li2  1  0.00841100  0.00000000  0.49755250  1
  Li  Li3  1  0.66739350  0.00000000  0.40424950  1
  Li  Li4  1  0.83110500  0.50000000  0.89026600  1
  Li  Li5  1  0.50995050  0.50000000  0.98857500  1
  Li  Li6  1  0.50841100  0.50000000  0.49755250  1
  Li  Li7  1  0.16739350  0.50000000  0.40424950  1
  Cr  Cr8  1  0.16852350  0.00000000  0.21468250  1
  Cr  Cr9  1  0.58466850  0.24477650  0.71324700  1
  Cr  Cr10  1  0.58466850  0.75522350  0.71324700  1
  Cr  Cr11  1  0.66852350  0.50000000  0.21468250  1
  Cr  Cr12  1  0.08466850  0.74477650  0.71324700  1
  Cr  Cr13  1  0.08466850  0.25522350  0.71324700  1
  Sn  Sn14  1  0.32917600  0.00000000  0.49606250  1
  Sn  Sn15  1  0.83073550  0.00000000  0.71378650  1
  Sn  Sn16  1  0.65892450  0.00000000  0.98562000  1
  Sn  Sn17  1  0.41460750  0.24683900  0.21555650  1
  Sn  Sn18  1  0.41460750  0.75316100  0.21555650  1
  Sn  Sn19  1  0.82917600  0.50000000  0.49606250  1
  Sn  Sn20  1  0.33073550  0.50000000  0.71378650  1
  Sn  Sn21  1  0.15892450  0.50000000  0.98562000  1
  Sn  Sn22  1  0.91460750  0.74683900  0.21555650  1
  Sn  Sn23  1  0.91460750  0.25316100  0.21555650  1
  O  O24  1  0.48374650  0.00000000  0.34518600  1
  O  O25  1  0.32914900  0.00000000  0.10363950  1
  O  O26  1  0.00417200  0.00000000  0.31434050  1
  O  O27  1  0.00450850  0.00000000  0.80616350  1
  O  O28  1  0.83860800  0.00000000  0.09448850  1
  O  O29  1  0.16195050  0.00000000  0.60273550  1
  O  O30  1  0.66248000  0.00000000  0.60744750  1
  O  O31  1  0.51646300  0.00000000  0.83024400  1
  O  O32  1  0.42183150  0.25810550  0.59632550  1
  O  O33  1  0.42183150  0.74189450  0.59632550  1
  O  O34  1  0.25917050  0.22392550  0.34445950  1
  O  O35  1  0.25917050  0.77607450  0.34445950  1
  O  O36  1  0.73770850  0.22573500  0.83824650  1
  O  O37  1  0.73770850  0.77426500  0.83824650  1
  O  O38  1  0.57991750  0.25889450  0.09857250  1
  O  O39  1  0.57991750  0.74110550  0.09857250  1
  O  O40  1  0.98374650  0.50000000  0.34518600  1
  O  O41  1  0.82914900  0.50000000  0.10363950  1
  O  O42  1  0.50417200  0.50000000  0.31434050  1
  O  O43  1  0.50450850  0.50000000  0.80616350  1
  O  O44  1  0.33860800  0.50000000  0.09448850  1
  O  O45  1  0.66195050  0.50000000  0.60273550  1
  O  O46  1  0.16248000  0.50000000  0.60744750  1
  O  O47  1  0.01646300  0.50000000  0.83024400  1
  O  O48  1  0.92183150  0.75810550  0.59632550  1
  O  O49  1  0.92183150  0.24189450  0.59632550  1
  O  O50  1  0.75917050  0.72392550  0.34445950  1
  O  O51  1  0.75917050  0.27607450  0.34445950  1
  O  O52  1  0.23770850  0.72573500  0.83824650  1
  O  O53  1  0.23770850  0.27426500  0.83824650  1
  O  O54  1  0.07991750  0.75889450  0.09857250  1
  O  O55  1  0.07991750  0.24110550  0.09857250  1
