# generated using pymatgen
data_Li4Mn5SnO12
_symmetry_space_group_name_H-M   'P 1'
_cell_length_a   5.37967200
_cell_length_b   8.97070400
_cell_length_c   10.30973009
_cell_angle_alpha   90.00000000
_cell_angle_beta   90.91341624
_cell_angle_gamma   90.00000000
_symmetry_Int_Tables_number   1
_chemical_formula_structural   Li4Mn5SnO12
_chemical_formula_sum   'Li8 Mn10 Sn2 O24'
_cell_volume   497.47862936
_cell_formula_units_Z   2
loop_
 _symmetry_equiv_pos_site_id
 _symmetry_equiv_pos_as_xyz
  1  'x, y, z'
loop_
 _atom_site_type_symbol
 _atom_site_label
 _atom_site_symmetry_multiplicity
 _atom_site_fract_x
 _atom_site_fract_y
 _atom_site_fract_z
 _atom_site_occupancy
  Li  Li0  1  0.61651550  0.75478450  0.74772100  1
  Li  Li1  1  0.38348450  0.75478450  0.25227900  1
  Li  Li2  1  0.61651550  0.24521550  0.74772100  1
  Li  Li3  1  0.38348450  0.24521550  0.25227900  1
  Li  Li4  1  0.11651550  0.25478450  0.74772100  1
  Li  Li5  1  0.88348450  0.25478450  0.25227900  1
  Li  Li6  1  0.11651550  0.74521550  0.74772100  1
  Li  Li7  1  0.88348450  0.74521550  0.25227900  1
  Mn  Mn8  1  0.50000000  0.66376400  0.50000000  1
  Mn  Mn9  1  0.50000000  0.16357700  0.00000000  1
  Mn  Mn10  1  0.50000000  0.83642300  0.00000000  1
  Mn  Mn11  1  0.50000000  0.33623600  0.50000000  1
  Mn  Mn12  1  0.50000000  0.00000000  0.50000000  1
  Mn  Mn13  1  0.00000000  0.16376400  0.50000000  1
  Mn  Mn14  1  0.00000000  0.66357700  0.00000000  1
  Mn  Mn15  1  0.00000000  0.33642300  0.00000000  1
  Mn  Mn16  1  0.00000000  0.83623600  0.50000000  1
  Mn  Mn17  1  0.00000000  0.50000000  0.50000000  1
  Sn  Sn18  1  0.00000000  0.00000000  0.00000000  1
  Sn  Sn19  1  0.50000000  0.50000000  0.00000000  1
  O  O20  1  0.63432200  0.67942800  0.11312600  1
  O  O21  1  0.36567800  0.67942800  0.88687400  1
  O  O22  1  0.64811350  0.81907350  0.39409700  1
  O  O23  1  0.64811350  0.18092650  0.39409700  1
  O  O24  1  0.35188650  0.81907350  0.60590300  1
  O  O25  1  0.82568200  0.00000000  0.58723700  1
  O  O26  1  0.35188650  0.18092650  0.60590300  1
  O  O27  1  0.63432200  0.32057200  0.11312600  1
  O  O28  1  0.65992900  0.00000000  0.09568400  1
  O  O29  1  0.36567800  0.32057200  0.88687400  1
  O  O30  1  0.34007100  0.00000000  0.90431600  1
  O  O31  1  0.17431800  0.00000000  0.41276300  1
  O  O32  1  0.13432200  0.17942800  0.11312600  1
  O  O33  1  0.86567800  0.17942800  0.88687400  1
  O  O34  1  0.14811350  0.31907350  0.39409700  1
  O  O35  1  0.14811350  0.68092650  0.39409700  1
  O  O36  1  0.85188650  0.31907350  0.60590300  1
  O  O37  1  0.32568200  0.50000000  0.58723700  1
  O  O38  1  0.85188650  0.68092650  0.60590300  1
  O  O39  1  0.13432200  0.82057200  0.11312600  1
  O  O40  1  0.15992900  0.50000000  0.09568400  1
  O  O41  1  0.86567800  0.82057200  0.88687400  1
  O  O42  1  0.84007100  0.50000000  0.90431600  1
  O  O43  1  0.67431800  0.50000000  0.41276300  1
