# generated using pymatgen
data_Li2Ni3O3F2
_symmetry_space_group_name_H-M   'P 1'
_cell_length_a   2.95361400
_cell_length_b   2.95361400
_cell_length_c   20.99642200
_cell_angle_alpha   90.00000000
_cell_angle_beta   90.00000000
_cell_angle_gamma   90.00000000
_symmetry_Int_Tables_number   1
_chemical_formula_structural   Li2Ni3O3F2
_chemical_formula_sum   'Li4 Ni6 O6 F4'
_cell_volume   183.16933500
_cell_formula_units_Z   2
loop_
 _symmetry_equiv_pos_site_id
 _symmetry_equiv_pos_as_xyz
  1  'x, y, z'
loop_
 _atom_site_type_symbol
 _atom_site_label
 _atom_site_symmetry_multiplicity
 _atom_site_fract_x
 _atom_site_fract_y
 _atom_site_fract_z
 _atom_site_occupancy
  Li  Li0  1  0.50000000  0.50000000  0.19949400  1
  Li  Li1  1  0.00000000  0.00000000  0.30050600  1
  Li  Li2  1  0.00000000  0.00000000  0.69949400  1
  Li  Li3  1  0.50000000  0.50000000  0.80050600  1
  Ni  Ni4  1  0.50000000  0.50000000  0.39984900  1
  Ni  Ni5  1  0.50000000  0.50000000  0.00000000  1
  Ni  Ni6  1  0.00000000  0.00000000  0.10015100  1
  Ni  Ni7  1  0.00000000  0.00000000  0.89984900  1
  Ni  Ni8  1  0.00000000  0.00000000  0.50000000  1
  Ni  Ni9  1  0.50000000  0.50000000  0.60015100  1
  O  O10  1  0.00000000  0.00000000  0.39847400  1
  O  O11  1  0.00000000  0.00000000  0.00000000  1
  O  O12  1  0.50000000  0.50000000  0.10152600  1
  O  O13  1  0.50000000  0.50000000  0.89847400  1
  O  O14  1  0.50000000  0.50000000  0.50000000  1
  O  O15  1  0.00000000  0.00000000  0.60152600  1
  F  F16  1  0.00000000  0.00000000  0.20319200  1
  F  F17  1  0.50000000  0.50000000  0.29680800  1
  F  F18  1  0.50000000  0.50000000  0.70319200  1
  F  F19  1  0.00000000  0.00000000  0.79680800  1
