# generated using pymatgen
data_Li2FeNi3O8
_symmetry_space_group_name_H-M   'P 1'
_cell_length_a   5.77004179
_cell_length_b   5.77004179
_cell_length_c   14.37948150
_cell_angle_alpha   90.00000000
_cell_angle_beta   90.00000000
_cell_angle_gamma   120.00000000
_symmetry_Int_Tables_number   1
_chemical_formula_structural   Li2FeNi3O8
_chemical_formula_sum   'Li6 Fe3 Ni9 O24'
_cell_volume   414.60236530
_cell_formula_units_Z   3
loop_
 _symmetry_equiv_pos_site_id
 _symmetry_equiv_pos_as_xyz
  1  'x, y, z'
loop_
 _atom_site_type_symbol
 _atom_site_label
 _atom_site_symmetry_multiplicity
 _atom_site_fract_x
 _atom_site_fract_y
 _atom_site_fract_z
 _atom_site_occupancy
  Li  Li0  1  0.66666667  0.33333333  0.21197133  1
  Li  Li1  1  0.00000000  0.00000000  0.12136200  1
  Li  Li2  1  0.33333333  0.66666667  0.54530467  1
  Li  Li3  1  0.66666667  0.33333333  0.45469533  1
  Li  Li4  1  0.00000000  0.00000000  0.87863800  1
  Li  Li5  1  0.33333333  0.66666667  0.78802867  1
  Fe  Fe6  1  0.33333333  0.66666667  0.16666667  1
  Fe  Fe7  1  1.00000000  1.00000000  0.50000000  1
  Fe  Fe8  1  0.66666667  0.33333333  0.83333333  1
  Ni  Ni9  1  0.00000000  0.50000000  0.00000000  1
  Ni  Ni10  1  0.50000000  0.50000000  0.00000000  1
  Ni  Ni11  1  0.50000000  0.00000000  0.00000000  1
  Ni  Ni12  1  0.66666667  0.83333333  0.33333333  1
  Ni  Ni13  1  0.16666667  0.83333333  0.33333333  1
  Ni  Ni14  1  0.16666667  0.33333333  0.33333333  1
  Ni  Ni15  1  0.33333333  0.16666667  0.66666667  1
  Ni  Ni16  1  0.83333333  0.16666667  0.66666667  1
  Ni  Ni17  1  0.83333333  0.66666667  0.66666667  1
  O  O18  1  0.66666667  0.33333333  0.07135433  1
  O  O19  1  0.48405800  0.96811600  0.26010700  1
  O  O20  1  0.48405800  0.51594200  0.26010700  1
  O  O21  1  0.03188400  0.51594200  0.26010700  1
  O  O22  1  0.63478267  0.81739133  0.07322633  1
  O  O23  1  0.18260867  0.81739133  0.07322633  1
  O  O24  1  0.18260867  0.36521733  0.07322633  1
  O  O25  1  0.00000000  0.00000000  0.26197900  1
  O  O26  1  0.33333333  0.66666667  0.40468767  1
  O  O27  1  0.15072467  0.30144933  0.59344033  1
  O  O28  1  0.15072467  0.84927533  0.59344033  1
  O  O29  1  0.69855067  0.84927533  0.59344033  1
  O  O30  1  0.30144933  0.15072467  0.40655967  1
  O  O31  1  0.84927533  0.15072467  0.40655967  1
  O  O32  1  0.84927533  0.69855067  0.40655967  1
  O  O33  1  0.66666667  0.33333333  0.59531233  1
  O  O34  1  0.00000000  0.00000000  0.73802100  1
  O  O35  1  0.81739133  0.63478267  0.92677367  1
  O  O36  1  0.81739133  0.18260867  0.92677367  1
  O  O37  1  0.36521733  0.18260867  0.92677367  1
  O  O38  1  0.96811600  0.48405800  0.73989300  1
  O  O39  1  0.51594200  0.48405800  0.73989300  1
  O  O40  1  0.51594200  0.03188400  0.73989300  1
  O  O41  1  0.33333333  0.66666667  0.92864567  1
