# generated using pymatgen
data_NaVP2O7
_symmetry_space_group_name_H-M   'P 1'
_cell_length_a   4.90866431
_cell_length_b   8.32453800
_cell_length_c   7.17518203
_cell_angle_alpha   90.00000000
_cell_angle_beta   106.87552116
_cell_angle_gamma   90.00000000
_symmetry_Int_Tables_number   1
_chemical_formula_structural   NaVP2O7
_chemical_formula_sum   'Na2 V2 P4 O14'
_cell_volume   280.56924201
_cell_formula_units_Z   2
loop_
 _symmetry_equiv_pos_site_id
 _symmetry_equiv_pos_as_xyz
  1  'x, y, z'
loop_
 _atom_site_type_symbol
 _atom_site_label
 _atom_site_symmetry_multiplicity
 _atom_site_fract_x
 _atom_site_fract_y
 _atom_site_fract_z
 _atom_site_occupancy
  Na  Na0  1  0.77398150  0.58720750  0.76179525  1
  Na  Na1  1  0.22601850  0.08720750  0.23820475  1
  V  V2  1  0.77958800  0.00414300  0.76797075  1
  V  V3  1  0.22041200  0.50414300  0.23202925  1
  P  P4  1  0.61549850  0.30866150  0.00543525  1
  P  P5  1  0.38450150  0.80866150  0.99456475  1
  P  P6  1  0.76951500  0.73711300  0.38506325  1
  P  P7  1  0.23048500  0.23711300  0.61493675  1
  O  O8  1  0.97125600  0.19269200  0.68087975  1
  O  O9  1  0.02874400  0.69269200  0.31912025  1
  O  O10  1  0.84698300  0.83794000  0.56905225  1
  O  O11  1  0.15301700  0.33794000  0.43094775  1
  O  O12  1  0.84201150  0.44021150  0.04590925  1
  O  O13  1  0.15798850  0.94021150  0.95409075  1
  O  O14  1  0.73468900  0.13953800  0.00325775  1
  O  O15  1  0.26531100  0.63953800  0.99674225  1
  O  O16  1  0.58409000  0.81794700  0.86552775  1
  O  O17  1  0.41591000  0.31794700  0.13447225  1
  O  O18  1  0.40699650  0.08848350  0.59196325  1
  O  O19  1  0.59300350  0.58848350  0.40803675  1
  O  O20  1  0.43154650  0.35334050  0.78211525  1
  O  O21  1  0.56845350  0.85334050  0.21788475  1
