# generated using pymatgen
data_Li2CrSi3O8
_symmetry_space_group_name_H-M   'P 1'
_cell_length_a   6.63961816
_cell_length_b   8.13304500
_cell_length_c   7.01104922
_cell_angle_alpha   90.00000000
_cell_angle_beta   110.57200208
_cell_angle_gamma   90.00000000
_symmetry_Int_Tables_number   1
_chemical_formula_structural   Li2CrSi3O8
_chemical_formula_sum   'Li4 Cr2 Si6 O16'
_cell_volume   354.45611794
_cell_formula_units_Z   2
loop_
 _symmetry_equiv_pos_site_id
 _symmetry_equiv_pos_as_xyz
  1  'x, y, z'
loop_
 _atom_site_type_symbol
 _atom_site_label
 _atom_site_symmetry_multiplicity
 _atom_site_fract_x
 _atom_site_fract_y
 _atom_site_fract_z
 _atom_site_occupancy
  Li  Li0  1  0.69623800  0.66684800  0.75854100  1
  Li  Li1  1  0.30376200  0.16684800  0.24145900  1
  Li  Li2  1  0.89264600  0.18779500  0.42867400  1
  Li  Li3  1  0.10735400  0.68779500  0.57132600  1
  Cr  Cr4  1  0.51617400  0.50662400  0.35996400  1
  Cr  Cr5  1  0.48382600  0.00662400  0.64003600  1
  Si  Si6  1  0.09398200  0.46217800  0.94110400  1
  Si  Si7  1  0.90601800  0.96217800  0.05889600  1
  Si  Si8  1  0.27126500  0.82586900  0.95562600  1
  Si  Si9  1  0.72873500  0.32586900  0.04437400  1
  Si  Si10  1  0.30696500  0.34515000  0.65756300  1
  Si  Si11  1  0.69303500  0.84515000  0.34243700  1
  O  O12  1  0.50175200  0.27761000  0.86573200  1
  O  O13  1  0.49824800  0.77761000  0.13426800  1
  O  O14  1  0.15873000  0.95857000  0.06780400  1
  O  O15  1  0.84127000  0.45857000  0.93219600  1
  O  O16  1  0.12322800  0.65831700  0.90285400  1
  O  O17  1  0.87677200  0.15831700  0.09714600  1
  O  O18  1  0.73680000  0.89092600  0.85353300  1
  O  O19  1  0.26320000  0.39092600  0.14646700  1
  O  O20  1  0.09375600  0.36820900  0.73089100  1
  O  O21  1  0.90624400  0.86820900  0.26910900  1
  O  O22  1  0.27552200  0.88386000  0.73993400  1
  O  O23  1  0.72447800  0.38386000  0.26006600  1
  O  O24  1  0.36506400  0.52240500  0.58011100  1
  O  O25  1  0.63493600  0.02240500  0.41988900  1
  O  O26  1  0.25663000  0.19056300  0.50034200  1
  O  O27  1  0.74337000  0.69056300  0.49965800  1
