# generated using pymatgen
data_Li2CoSiO4
_symmetry_space_group_name_H-M   'P 1'
_cell_length_a   6.34091200
_cell_length_b   5.03243000
_cell_length_c   10.81251579
_cell_angle_alpha   90.00000000
_cell_angle_beta   90.75381849
_cell_angle_gamma   90.00000000
_symmetry_Int_Tables_number   1
_chemical_formula_structural   Li2CoSiO4
_chemical_formula_sum   'Li8 Co4 Si4 O16'
_cell_volume   344.99963445
_cell_formula_units_Z   4
loop_
 _symmetry_equiv_pos_site_id
 _symmetry_equiv_pos_as_xyz
  1  'x, y, z'
loop_
 _atom_site_type_symbol
 _atom_site_label
 _atom_site_symmetry_multiplicity
 _atom_site_fract_x
 _atom_site_fract_y
 _atom_site_fract_z
 _atom_site_occupancy
  Li  Li0  1  0.00008200  0.18586900  0.41349800  1
  Li  Li1  1  0.00008200  0.31413100  0.91349800  1
  Li  Li2  1  0.76824200  0.68704000  0.33053300  1
  Li  Li3  1  0.76824200  0.81296000  0.83053300  1
  Li  Li4  1  0.23175800  0.18704000  0.16946700  1
  Li  Li5  1  0.23175800  0.31296000  0.66946700  1
  Li  Li6  1  0.99991800  0.68586900  0.08650200  1
  Li  Li7  1  0.99991800  0.81413100  0.58650200  1
  Co  Co8  1  0.49333900  0.69666200  0.09517300  1
  Co  Co9  1  0.49333900  0.80333800  0.59517300  1
  Co  Co10  1  0.50666100  0.19666200  0.40482700  1
  Co  Co11  1  0.50666100  0.30333800  0.90482700  1
  Si  Si12  1  0.75835400  0.18424800  0.16168000  1
  Si  Si13  1  0.75835400  0.31575200  0.66168000  1
  Si  Si14  1  0.24164600  0.68424800  0.33832000  1
  Si  Si15  1  0.24164600  0.81575200  0.83832000  1
  O  O16  1  0.96592600  0.29338100  0.09224800  1
  O  O17  1  0.96592600  0.20661900  0.59224800  1
  O  O18  1  0.74998900  0.85473200  0.16205500  1
  O  O19  1  0.74998900  0.64526800  0.66205500  1
  O  O20  1  0.75142200  0.29315800  0.30683600  1
  O  O21  1  0.75142200  0.20684200  0.80683600  1
  O  O22  1  0.53355100  0.28929800  0.09111900  1
  O  O23  1  0.53355100  0.21070200  0.59111900  1
  O  O24  1  0.46644900  0.78929800  0.40888100  1
  O  O25  1  0.46644900  0.71070200  0.90888100  1
  O  O26  1  0.24857800  0.79315800  0.19316400  1
  O  O27  1  0.24857800  0.70684200  0.69316400  1
  O  O28  1  0.25001100  0.35473200  0.33794500  1
  O  O29  1  0.25001100  0.14526800  0.83794500  1
  O  O30  1  0.03407400  0.79338100  0.40775200  1
  O  O31  1  0.03407400  0.70661900  0.90775200  1
