# generated using pymatgen
data_LiV4(PO4)3
_symmetry_space_group_name_H-M   'P 1'
_cell_length_a   6.71189600
_cell_length_b   15.03063400
_cell_length_c   10.24352100
_cell_angle_alpha   90.00000000
_cell_angle_beta   90.00000000
_cell_angle_gamma   90.00000000
_symmetry_Int_Tables_number   1
_chemical_formula_structural   LiV4(PO4)3
_chemical_formula_sum   'Li4 V16 P12 O48'
_cell_volume   1033.40790750
_cell_formula_units_Z   4
loop_
 _symmetry_equiv_pos_site_id
 _symmetry_equiv_pos_as_xyz
  1  'x, y, z'
loop_
 _atom_site_type_symbol
 _atom_site_label
 _atom_site_symmetry_multiplicity
 _atom_site_fract_x
 _atom_site_fract_y
 _atom_site_fract_z
 _atom_site_occupancy
  Li  Li0  1  0.50000000  0.47571900  0.74764700  1
  Li  Li1  1  0.00000000  0.02428100  0.24764700  1
  Li  Li2  1  0.00000000  0.97571900  0.74764700  1
  Li  Li3  1  0.50000000  0.52428100  0.24764700  1
  V  V4  1  0.00000000  0.36946100  0.55940100  1
  V  V5  1  0.74644200  0.20557200  0.74987400  1
  V  V6  1  0.25355800  0.20557200  0.74987400  1
  V  V7  1  0.00000000  0.36640800  0.93747300  1
  V  V8  1  0.50000000  0.13053900  0.05940100  1
  V  V9  1  0.24644200  0.29442800  0.24987400  1
  V  V10  1  0.75355800  0.29442800  0.24987400  1
  V  V11  1  0.50000000  0.13359200  0.43747300  1
  V  V12  1  0.50000000  0.86946100  0.55940100  1
  V  V13  1  0.24644200  0.70557200  0.74987400  1
  V  V14  1  0.75355800  0.70557200  0.74987400  1
  V  V15  1  0.50000000  0.86640800  0.93747300  1
  V  V16  1  0.00000000  0.63053900  0.05940100  1
  V  V17  1  0.74644200  0.79442800  0.24987400  1
  V  V18  1  0.25355800  0.79442800  0.24987400  1
  V  V19  1  0.00000000  0.63359200  0.43747300  1
  P  P20  1  0.50000000  0.31517900  0.53754400  1
  P  P21  1  0.50000000  0.02221500  0.79558300  1
  P  P22  1  0.50000000  0.31496700  0.96395700  1
  P  P23  1  0.00000000  0.18482100  0.03754400  1
  P  P24  1  0.00000000  0.47778500  0.29558300  1
  P  P25  1  0.00000000  0.18503300  0.46395700  1
  P  P26  1  0.00000000  0.81517900  0.53754400  1
  P  P27  1  0.00000000  0.52221500  0.79558300  1
  P  P28  1  0.00000000  0.81496700  0.96395700  1
  P  P29  1  0.50000000  0.68482100  0.03754400  1
  P  P30  1  0.50000000  0.97778500  0.29558300  1
  P  P31  1  0.50000000  0.68503300  0.46395700  1
  O  O32  1  0.31445800  0.36642200  0.57585800  1
  O  O33  1  0.68554200  0.36642200  0.57585800  1
  O  O34  1  0.50000000  0.22092900  0.61179700  1
  O  O35  1  0.00000000  0.21601600  0.61342500  1
  O  O36  1  0.69556200  0.06818800  0.74900600  1
  O  O37  1  0.30443800  0.06818800  0.74900600  1
  O  O38  1  0.00000000  0.42391600  0.74760700  1
  O  O39  1  0.00000000  0.21606600  0.88817200  1
  O  O40  1  0.50000000  0.22113500  0.88860400  1
  O  O41  1  0.31438900  0.36628400  0.92587600  1
  O  O42  1  0.68561100  0.36628400  0.92587600  1
  O  O43  1  0.50000000  0.01151000  0.94779200  1
  O  O44  1  0.81445800  0.13357800  0.07585800  1
  O  O45  1  0.18554200  0.13357800  0.07585800  1
  O  O46  1  0.00000000  0.27907100  0.11179700  1
  O  O47  1  0.50000000  0.28398400  0.11342500  1
  O  O48  1  0.50000000  0.07608400  0.24760700  1
  O  O49  1  0.19556200  0.43181200  0.24900600  1
  O  O50  1  0.80443800  0.43181200  0.24900600  1
  O  O51  1  0.50000000  0.28393400  0.38817200  1
  O  O52  1  0.00000000  0.27886500  0.38860400  1
  O  O53  1  0.18561100  0.13371600  0.42587600  1
  O  O54  1  0.81438900  0.13371600  0.42587600  1
  O  O55  1  0.00000000  0.48849000  0.44779200  1
  O  O56  1  0.81445800  0.86642200  0.57585800  1
  O  O57  1  0.18554200  0.86642200  0.57585800  1
  O  O58  1  0.00000000  0.72092900  0.61179700  1
  O  O59  1  0.50000000  0.71601600  0.61342500  1
  O  O60  1  0.19556200  0.56818800  0.74900600  1
  O  O61  1  0.80443800  0.56818800  0.74900600  1
  O  O62  1  0.50000000  0.92391600  0.74760700  1
  O  O63  1  0.50000000  0.71606600  0.88817200  1
  O  O64  1  0.00000000  0.72113500  0.88860400  1
  O  O65  1  0.81438900  0.86628400  0.92587600  1
  O  O66  1  0.18561100  0.86628400  0.92587600  1
  O  O67  1  0.00000000  0.51151000  0.94779200  1
  O  O68  1  0.31445800  0.63357800  0.07585800  1
  O  O69  1  0.68554200  0.63357800  0.07585800  1
  O  O70  1  0.50000000  0.77907100  0.11179700  1
  O  O71  1  0.00000000  0.78398400  0.11342500  1
  O  O72  1  0.00000000  0.57608400  0.24760700  1
  O  O73  1  0.69556200  0.93181200  0.24900600  1
  O  O74  1  0.30443800  0.93181200  0.24900600  1
  O  O75  1  0.00000000  0.78393400  0.38817200  1
  O  O76  1  0.50000000  0.77886500  0.38860400  1
  O  O77  1  0.68561100  0.63371600  0.42587600  1
  O  O78  1  0.31438900  0.63371600  0.42587600  1
  O  O79  1  0.50000000  0.98849000  0.44779200  1
