# generated using pymatgen
data_V2OF5
_symmetry_space_group_name_H-M   'P 1'
_cell_length_a   5.25263059
_cell_length_b   5.25263059
_cell_length_c   13.49807247
_cell_angle_alpha   90.00000000
_cell_angle_beta   90.00000000
_cell_angle_gamma   120.00000000
_symmetry_Int_Tables_number   1
_chemical_formula_structural   V2OF5
_chemical_formula_sum   'V6 O3 F15'
_cell_volume   322.51959432
_cell_formula_units_Z   3
loop_
 _symmetry_equiv_pos_site_id
 _symmetry_equiv_pos_as_xyz
  1  'x, y, z'
loop_
 _atom_site_type_symbol
 _atom_site_label
 _atom_site_symmetry_multiplicity
 _atom_site_fract_x
 _atom_site_fract_y
 _atom_site_fract_z
 _atom_site_occupancy
  V  V0  1  0.32349400  0.01374700  0.07909050  1
  V  V1  1  0.30974700  0.98625300  0.58757617  1
  V  V2  1  0.98625300  0.30974700  0.41242383  1
  V  V3  1  0.67650600  0.69025300  0.25424283  1
  V  V4  1  0.01374700  0.32349400  0.92090950  1
  V  V5  1  0.69025300  0.67650600  0.74575717  1
  O  O6  1  0.89040550  0.00000000  0.33333333  1
  O  O7  1  0.10959450  0.10959450  0.00000000  1
  O  O8  1  0.00000000  0.89040550  0.66666667  1
  F  F9  1  0.31428700  0.59074900  0.33036650  1
  F  F10  1  0.72353800  0.40925100  0.33630017  1
  F  F11  1  0.68571300  0.27646200  0.00296683  1
  F  F12  1  0.40925100  0.72353800  0.66369983  1
  F  F13  1  0.65898300  0.07192200  0.50552450  1
  F  F14  1  0.58706100  0.92807800  0.16114217  1
  F  F15  1  0.92807800  0.58706100  0.83885783  1
  F  F16  1  0.34101700  0.41293900  0.82780883  1
  F  F17  1  0.07192200  0.65898300  0.49447550  1
  F  F18  1  0.41293900  0.34101700  0.17219117  1
  F  F19  1  0.74084750  0.00000000  0.83333333  1
  F  F20  1  0.27646200  0.68571300  0.99703317  1
  F  F21  1  0.59074900  0.31428700  0.66963350  1
  F  F22  1  0.25915250  0.25915250  0.50000000  1
  F  F23  1  0.00000000  0.74084750  0.16666667  1
