# generated using pymatgen
data_Li3Co3OF7
_symmetry_space_group_name_H-M   'P 1'
_cell_length_a   6.08660031
_cell_length_b   6.08660031
_cell_length_c   14.85323990
_cell_angle_alpha   90.00000000
_cell_angle_beta   90.00000000
_cell_angle_gamma   120.00000000
_symmetry_Int_Tables_number   1
_chemical_formula_structural   Li3Co3OF7
_chemical_formula_sum   'Li9 Co9 O3 F21'
_cell_volume   476.54223174
_cell_formula_units_Z   3
loop_
 _symmetry_equiv_pos_site_id
 _symmetry_equiv_pos_as_xyz
  1  'x, y, z'
loop_
 _atom_site_type_symbol
 _atom_site_label
 _atom_site_symmetry_multiplicity
 _atom_site_fract_x
 _atom_site_fract_y
 _atom_site_fract_z
 _atom_site_occupancy
  Li  Li0  1  0.33333333  0.66666667  0.66835633  1
  Li  Li1  1  0.33333333  0.66666667  0.41093333  1
  Li  Li2  1  0.33333333  0.66666667  0.04141050  1
  Li  Li3  1  0.00000000  0.00000000  0.00168967  1
  Li  Li4  1  0.00000000  0.00000000  0.74426667  1
  Li  Li5  1  0.00000000  0.00000000  0.37474383  1
  Li  Li6  1  0.66666667  0.33333333  0.33502300  1
  Li  Li7  1  0.66666667  0.33333333  0.07760000  1
  Li  Li8  1  0.66666667  0.33333333  0.70807717  1
  Co  Co9  1  0.17522417  0.35044833  0.21308833  1
  Co  Co10  1  0.64955167  0.82477583  0.21308833  1
  Co  Co11  1  0.17522417  0.82477583  0.21308833  1
  Co  Co12  1  0.84189083  0.68378167  0.54642167  1
  Co  Co13  1  0.31621833  0.15810917  0.54642167  1
  Co  Co14  1  0.84189083  0.15810917  0.54642167  1
  Co  Co15  1  0.50855750  0.01711500  0.87975500  1
  Co  Co16  1  0.98288500  0.49144250  0.87975500  1
  Co  Co17  1  0.50855750  0.49144250  0.87975500  1
  O  O18  1  0.33333333  0.66666667  0.28114267  1
  O  O19  1  0.00000000  0.00000000  0.61447600  1
  O  O20  1  0.66666667  0.33333333  0.94780933  1
  F  F21  1  0.33333333  0.66666667  0.80421333  1
  F  F22  1  0.01970717  0.50985358  0.12369333  1
  F  F23  1  0.49014642  0.50985358  0.12369333  1
  F  F24  1  0.49014642  0.98029283  0.12369333  1
  F  F25  1  0.17610450  0.82389550  0.95653600  1
  F  F26  1  0.17610450  0.35220900  0.95653600  1
  F  F27  1  0.64779100  0.82389550  0.95653600  1
  F  F28  1  0.00000000  0.00000000  0.13754667  1
  F  F29  1  0.68637383  0.84318692  0.45702667  1
  F  F30  1  0.15681308  0.84318692  0.45702667  1
  F  F31  1  0.15681308  0.31362617  0.45702667  1
  F  F32  1  0.84277117  0.15722883  0.28986933  1
  F  F33  1  0.84277117  0.68554233  0.28986933  1
  F  F34  1  0.31445767  0.15722883  0.28986933  1
  F  F35  1  0.66666667  0.33333333  0.47088000  1
  F  F36  1  0.35304050  0.17652025  0.79036000  1
  F  F37  1  0.82347975  0.17652025  0.79036000  1
  F  F38  1  0.82347975  0.64695950  0.79036000  1
  F  F39  1  0.50943783  0.49056217  0.62320267  1
  F  F40  1  0.50943783  0.01887567  0.62320267  1
  F  F41  1  0.98112433  0.49056217  0.62320267  1
