# generated using pymatgen
data_Mg(NiO2)2
_symmetry_space_group_name_H-M   'P 1'
_cell_length_a   5.68364943
_cell_length_b   5.68364943
_cell_length_c   8.92656013
_cell_angle_alpha   90.00000000
_cell_angle_beta   90.00000000
_cell_angle_gamma   90.00000000
_symmetry_Int_Tables_number   1
_chemical_formula_structural   Mg(NiO2)2
_chemical_formula_sum   'Mg4 Ni8 O16'
_cell_volume   288.36244568
_cell_formula_units_Z   4
loop_
 _symmetry_equiv_pos_site_id
 _symmetry_equiv_pos_as_xyz
  1  'x, y, z'
loop_
 _atom_site_type_symbol
 _atom_site_label
 _atom_site_symmetry_multiplicity
 _atom_site_fract_x
 _atom_site_fract_y
 _atom_site_fract_z
 _atom_site_occupancy
  Mg  Mg0  1  0.00000000  0.00000000  0.00000000  1
  Mg  Mg1  1  0.50000000  0.00000000  0.75000000  1
  Mg  Mg2  1  0.50000000  0.50000000  0.50000000  1
  Mg  Mg3  1  0.00000000  0.50000000  0.25000000  1
  Ni  Ni4  1  0.75000000  0.50000000  0.87500000  1
  Ni  Ni5  1  0.00000000  0.25000000  0.62500000  1
  Ni  Ni6  1  0.25000000  0.50000000  0.87500000  1
  Ni  Ni7  1  0.00000000  0.75000000  0.62500000  1
  Ni  Ni8  1  0.25000000  0.00000000  0.37500000  1
  Ni  Ni9  1  0.50000000  0.75000000  0.12500000  1
  Ni  Ni10  1  0.75000000  0.00000000  0.37500000  1
  Ni  Ni11  1  0.50000000  0.25000000  0.12500000  1
  O  O12  1  0.50000000  0.27535050  0.88573050  1
  O  O13  1  0.27535050  0.50000000  0.11426950  1
  O  O14  1  0.72464950  0.50000000  0.11426950  1
  O  O15  1  0.00000000  0.72464950  0.86426950  1
  O  O16  1  0.00000000  0.27535050  0.86426950  1
  O  O17  1  0.22464950  0.50000000  0.63573050  1
  O  O18  1  0.50000000  0.72464950  0.88573050  1
  O  O19  1  0.77535050  0.50000000  0.63573050  1
  O  O20  1  0.00000000  0.77535050  0.38573050  1
  O  O21  1  0.77535050  0.00000000  0.61426950  1
  O  O22  1  0.22464950  0.00000000  0.61426950  1
  O  O23  1  0.50000000  0.22464950  0.36426950  1
  O  O24  1  0.50000000  0.77535050  0.36426950  1
  O  O25  1  0.72464950  0.00000000  0.13573050  1
  O  O26  1  0.00000000  0.22464950  0.38573050  1
  O  O27  1  0.27535050  0.00000000  0.13573050  1
