# generated using pymatgen
data_Li4Si3(NiO5)2
_symmetry_space_group_name_H-M   'P 1'
_cell_length_a   9.10145400
_cell_length_b   5.46571600
_cell_length_c   16.68138250
_cell_angle_alpha   90.00000000
_cell_angle_beta   98.26015064
_cell_angle_gamma   90.00000000
_symmetry_Int_Tables_number   1
_chemical_formula_structural   Li4Si3(NiO5)2
_chemical_formula_sum   'Li16 Si12 Ni8 O40'
_cell_volume   821.22271952
_cell_formula_units_Z   4
loop_
 _symmetry_equiv_pos_site_id
 _symmetry_equiv_pos_as_xyz
  1  'x, y, z'
loop_
 _atom_site_type_symbol
 _atom_site_label
 _atom_site_symmetry_multiplicity
 _atom_site_fract_x
 _atom_site_fract_y
 _atom_site_fract_z
 _atom_site_occupancy
  Li  Li0  1  0.75448950  0.92337850  0.55340900  1
  Li  Li1  1  0.68478950  0.10842250  0.73020900  1
  Li  Li2  1  0.75448950  0.07662150  0.05340900  1
  Li  Li3  1  0.68478950  0.89157750  0.23020900  1
  Li  Li4  1  0.31521050  0.10842250  0.76979100  1
  Li  Li5  1  0.24551050  0.92337850  0.94659100  1
  Li  Li6  1  0.31521050  0.89157750  0.26979100  1
  Li  Li7  1  0.24551050  0.07662150  0.44659100  1
  Li  Li8  1  0.25448950  0.42337850  0.55340900  1
  Li  Li9  1  0.18478950  0.60842250  0.73020900  1
  Li  Li10  1  0.25448950  0.57662150  0.05340900  1
  Li  Li11  1  0.18478950  0.39157750  0.23020900  1
  Li  Li12  1  0.81521050  0.60842250  0.76979100  1
  Li  Li13  1  0.74551050  0.42337850  0.94659100  1
  Li  Li14  1  0.81521050  0.39157750  0.26979100  1
  Li  Li15  1  0.74551050  0.57662150  0.44659100  1
  Si  Si16  1  0.56568650  0.90387850  0.90194300  1
  Si  Si17  1  0.50000000  0.61318300  0.75000000  1
  Si  Si18  1  0.43431350  0.90387850  0.59805700  1
  Si  Si19  1  0.56568650  0.09612150  0.40194300  1
  Si  Si20  1  0.50000000  0.38681700  0.25000000  1
  Si  Si21  1  0.43431350  0.09612150  0.09805700  1
  Si  Si22  1  0.06568650  0.40387850  0.90194300  1
  Si  Si23  1  0.00000000  0.11318300  0.75000000  1
  Si  Si24  1  0.93431350  0.40387850  0.59805700  1
  Si  Si25  1  0.06568650  0.59612150  0.40194300  1
  Si  Si26  1  0.00000000  0.88681700  0.25000000  1
  Si  Si27  1  0.93431350  0.59612150  0.09805700  1
  Ni  Ni28  1  0.09717450  0.90352250  0.58098400  1
  Ni  Ni29  1  0.09717450  0.09647750  0.08098400  1
  Ni  Ni30  1  0.90282550  0.90352250  0.91901600  1
  Ni  Ni31  1  0.90282550  0.09647750  0.41901600  1
  Ni  Ni32  1  0.59717450  0.40352250  0.58098400  1
  Ni  Ni33  1  0.59717450  0.59647750  0.08098400  1
  Ni  Ni34  1  0.40282550  0.40352250  0.91901600  1
  Ni  Ni35  1  0.40282550  0.59647750  0.41901600  1
  O  O36  1  0.88179150  0.95840250  0.79263100  1
  O  O37  1  0.88179150  0.04159750  0.29263100  1
  O  O38  1  0.70678350  0.07657550  0.93448700  1
  O  O39  1  0.59529050  0.04222750  0.61005700  1
  O  O40  1  0.60024300  0.80943000  0.81111400  1
  O  O41  1  0.43572000  0.65171800  0.54505500  1
  O  O42  1  0.56428000  0.65171800  0.95494500  1
  O  O43  1  0.70678350  0.92342450  0.43448700  1
  O  O44  1  0.59529050  0.95777250  0.11005700  1
  O  O45  1  0.39975700  0.80943000  0.68888600  1
  O  O46  1  0.60024300  0.19057000  0.31111400  1
  O  O47  1  0.40470950  0.04222750  0.88994300  1
  O  O48  1  0.29321650  0.07657550  0.56551300  1
  O  O49  1  0.43572000  0.34828200  0.04505500  1
  O  O50  1  0.56428000  0.34828200  0.45494500  1
  O  O51  1  0.39975700  0.19057000  0.18888600  1
  O  O52  1  0.40470950  0.95777250  0.38994300  1
  O  O53  1  0.29321650  0.92342450  0.06551300  1
  O  O54  1  0.11820850  0.95840250  0.70736900  1
  O  O55  1  0.11820850  0.04159750  0.20736900  1
  O  O56  1  0.38179150  0.45840250  0.79263100  1
  O  O57  1  0.38179150  0.54159750  0.29263100  1
  O  O58  1  0.20678350  0.57657550  0.93448700  1
  O  O59  1  0.09529050  0.54222750  0.61005700  1
  O  O60  1  0.10024300  0.30943000  0.81111400  1
  O  O61  1  0.93572000  0.15171800  0.54505500  1
  O  O62  1  0.06428000  0.15171800  0.95494500  1
  O  O63  1  0.20678350  0.42342450  0.43448700  1
  O  O64  1  0.09529050  0.45777250  0.11005700  1
  O  O65  1  0.89975700  0.30943000  0.68888600  1
  O  O66  1  0.10024300  0.69057000  0.31111400  1
  O  O67  1  0.90470950  0.54222750  0.88994300  1
  O  O68  1  0.79321650  0.57657550  0.56551300  1
  O  O69  1  0.93572000  0.84828200  0.04505500  1
  O  O70  1  0.06428000  0.84828200  0.45494500  1
  O  O71  1  0.89975700  0.69057000  0.18888600  1
  O  O72  1  0.90470950  0.45777250  0.38994300  1
  O  O73  1  0.79321650  0.42342450  0.06551300  1
  O  O74  1  0.61820850  0.45840250  0.70736900  1
  O  O75  1  0.61820850  0.54159750  0.20736900  1
