# generated using pymatgen
data_Li2V5CoO12
_symmetry_space_group_name_H-M   'P 1'
_cell_length_a   10.59698783
_cell_length_b   8.89547481
_cell_length_c   5.70045618
_cell_angle_alpha   90.00000000
_cell_angle_beta   112.00563122
_cell_angle_gamma   90.00000000
_symmetry_Int_Tables_number   1
_chemical_formula_structural   Li2V5CoO12
_chemical_formula_sum   'Li4 V10 Co2 O24'
_cell_volume   498.20696369
_cell_formula_units_Z   2
loop_
 _symmetry_equiv_pos_site_id
 _symmetry_equiv_pos_as_xyz
  1  'x, y, z'
loop_
 _atom_site_type_symbol
 _atom_site_label
 _atom_site_symmetry_multiplicity
 _atom_site_fract_x
 _atom_site_fract_y
 _atom_site_fract_z
 _atom_site_occupancy
  Li  Li0  1  0.00000000  0.72883900  0.00000000  1
  Li  Li1  1  0.00000000  0.25510300  0.50000000  1
  Li  Li2  1  0.50000000  0.22883900  0.00000000  1
  Li  Li3  1  0.50000000  0.75510300  0.50000000  1
  V  V4  1  0.00000000  0.07947400  0.00000000  1
  V  V5  1  0.20894900  0.59560300  0.49216700  1
  V  V6  1  0.21441750  0.39621150  0.00813300  1
  V  V7  1  0.79105100  0.59560300  0.50783300  1
  V  V8  1  0.78558250  0.39621150  0.99186700  1
  V  V9  1  0.50000000  0.57947400  0.00000000  1
  V  V10  1  0.70894900  0.09560300  0.49216700  1
  V  V11  1  0.71441750  0.89621150  0.00813300  1
  V  V12  1  0.29105100  0.09560300  0.50783300  1
  V  V13  1  0.28558250  0.89621150  0.99186700  1
  Co  Co14  1  0.00000000  0.91128700  0.50000000  1
  Co  Co15  1  0.50000000  0.41128700  0.50000000  1
  O  O16  1  0.38786900  0.58968400  0.59985000  1
  O  O17  1  0.15745500  0.77767700  0.50673600  1
  O  O18  1  0.40223450  0.40527150  0.10177100  1
  O  O19  1  0.14766650  0.47883150  0.67218800  1
  O  O20  1  0.84254500  0.77767700  0.49326400  1
  O  O21  1  0.13966600  0.54423400  0.16950000  1
  O  O22  1  0.85233350  0.47883150  0.32781200  1
  O  O23  1  0.12032400  0.22513600  0.92993200  1
  O  O24  1  0.86033400  0.54423400  0.83050000  1
  O  O25  1  0.61213100  0.58968400  0.40015000  1
  O  O26  1  0.87967600  0.22513600  0.07006800  1
  O  O27  1  0.59776550  0.40527150  0.89822900  1
  O  O28  1  0.88786900  0.08968400  0.59985000  1
  O  O29  1  0.65745500  0.27767700  0.50673600  1
  O  O30  1  0.90223450  0.90527150  0.10177100  1
  O  O31  1  0.64766650  0.97883150  0.67218800  1
  O  O32  1  0.34254500  0.27767700  0.49326400  1
  O  O33  1  0.63966600  0.04423400  0.16950000  1
  O  O34  1  0.35233350  0.97883150  0.32781200  1
  O  O35  1  0.62032400  0.72513600  0.92993200  1
  O  O36  1  0.36033400  0.04423400  0.83050000  1
  O  O37  1  0.11213100  0.08968400  0.40015000  1
  O  O38  1  0.37967600  0.72513600  0.07006800  1
  O  O39  1  0.09776550  0.90527150  0.89822900  1
