# generated using pymatgen
data_LiNiPO4
_symmetry_space_group_name_H-M   'P 1'
_cell_length_a   4.92481901
_cell_length_b   6.99530801
_cell_length_c   9.95515001
_cell_angle_alpha   90.00000000
_cell_angle_beta   90.00000000
_cell_angle_gamma   90.00000000
_symmetry_Int_Tables_number   1
_chemical_formula_structural   LiNiPO4
_chemical_formula_sum   'Li4 Ni4 P4 O16'
_cell_volume   342.96114823
_cell_formula_units_Z   4
loop_
 _symmetry_equiv_pos_site_id
 _symmetry_equiv_pos_as_xyz
  1  'x, y, z'
loop_
 _atom_site_type_symbol
 _atom_site_label
 _atom_site_symmetry_multiplicity
 _atom_site_fract_x
 _atom_site_fract_y
 _atom_site_fract_z
 _atom_site_occupancy
  Li  Li0  1  0.75762300  0.00521750  0.65951300  1
  Li  Li1  1  0.25762300  0.50521750  0.84048700  1
  Li  Li2  1  0.75762300  0.49478250  0.15951300  1
  Li  Li3  1  0.25762300  0.99478250  0.34048700  1
  Ni  Ni4  1  0.26822500  0.00776150  0.85492200  1
  Ni  Ni5  1  0.76822500  0.99223850  0.14507800  1
  Ni  Ni6  1  0.76822500  0.50776150  0.64507800  1
  Ni  Ni7  1  0.26822500  0.49223850  0.35492200  1
  P  P8  1  0.24787500  0.24815950  0.59637800  1
  P  P9  1  0.74787500  0.74815950  0.90362200  1
  P  P10  1  0.24787500  0.25184050  0.09637800  1
  P  P11  1  0.74787500  0.75184050  0.40362200  1
  O  O12  1  0.80072300  0.76450050  0.55748800  1
  O  O13  1  0.30072300  0.26450050  0.94251200  1
  O  O14  1  0.80072300  0.73549950  0.05748800  1
  O  O15  1  0.30072300  0.23549950  0.44251200  1
  O  O16  1  0.93780400  0.25352450  0.62660500  1
  O  O17  1  0.43780400  0.75352450  0.87339500  1
  O  O18  1  0.93780400  0.24647550  0.12660500  1
  O  O19  1  0.43780400  0.74647550  0.37339500  1
  O  O20  1  0.37247300  0.43957050  0.64959500  1
  O  O21  1  0.87247300  0.93957050  0.85040500  1
  O  O22  1  0.37247300  0.06042950  0.14959500  1
  O  O23  1  0.87247300  0.56042950  0.35040500  1
  O  O24  1  0.36983900  0.07083850  0.66708600  1
  O  O25  1  0.86983900  0.57083850  0.83291400  1
  O  O26  1  0.36983900  0.42916150  0.16708600  1
  O  O27  1  0.86983900  0.92916150  0.33291400  1
