# generated using pymatgen
data_LiMnPO4
_symmetry_space_group_name_H-M   'P 1'
_cell_length_a   5.23721298
_cell_length_b   5.23721298
_cell_length_c   9.70901445
_cell_angle_alpha   90.00000000
_cell_angle_beta   90.00000000
_cell_angle_gamma   120.00000000
_symmetry_Int_Tables_number   1
_chemical_formula_structural   LiMnPO4
_chemical_formula_sum   'Li2 Mn2 P2 O8'
_cell_volume   230.62492917
_cell_formula_units_Z   2
loop_
 _symmetry_equiv_pos_site_id
 _symmetry_equiv_pos_as_xyz
  1  'x, y, z'
loop_
 _atom_site_type_symbol
 _atom_site_label
 _atom_site_symmetry_multiplicity
 _atom_site_fract_x
 _atom_site_fract_y
 _atom_site_fract_z
 _atom_site_occupancy
  Li  Li0  1  0.00000000  0.00000000  0.23482450  1
  Li  Li1  1  0.00000000  0.00000000  0.73482450  1
  Mn  Mn2  1  0.33333333  0.66666667  0.12328300  1
  Mn  Mn3  1  0.66666667  0.33333333  0.62328300  1
  P  P4  1  0.33333333  0.66666667  0.76045150  1
  P  P5  1  0.66666667  0.33333333  0.26045150  1
  O  O6  1  0.33333333  0.66666667  0.91751400  1
  O  O7  1  0.66666667  0.33333333  0.41751400  1
  O  O8  1  0.05863150  0.38176150  0.70493700  1
  O  O9  1  0.32313000  0.94136850  0.70493700  1
  O  O10  1  0.38176150  0.32313000  0.20493700  1
  O  O11  1  0.61823850  0.67687000  0.70493700  1
  O  O12  1  0.67687000  0.05863150  0.20493700  1
  O  O13  1  0.94136850  0.61823850  0.20493700  1
