# generated using pymatgen
data_Li4V5Cu3O16
_symmetry_space_group_name_H-M   'P 1'
_cell_length_a   10.23517575
_cell_length_b   5.86293363
_cell_length_c   9.69993924
_cell_angle_alpha   90.00000000
_cell_angle_beta   93.13529266
_cell_angle_gamma   90.00000000
_symmetry_Int_Tables_number   1
_chemical_formula_structural   Li4V5Cu3O16
_chemical_formula_sum   'Li8 V10 Cu6 O32'
_cell_volume   581.20419957
_cell_formula_units_Z   2
loop_
 _symmetry_equiv_pos_site_id
 _symmetry_equiv_pos_as_xyz
  1  'x, y, z'
loop_
 _atom_site_type_symbol
 _atom_site_label
 _atom_site_symmetry_multiplicity
 _atom_site_fract_x
 _atom_site_fract_y
 _atom_site_fract_z
 _atom_site_occupancy
  Li  Li0  1  0.16010100  0.50000000  0.08790100  1
  Li  Li1  1  0.00251100  0.00000000  0.00943300  1
  Li  Li2  1  0.00102800  0.00000000  0.51812500  1
  Li  Li3  1  0.34008300  0.00000000  0.58731600  1
  Li  Li4  1  0.66010100  0.00000000  0.08790100  1
  Li  Li5  1  0.50251100  0.50000000  0.00943300  1
  Li  Li6  1  0.50102800  0.50000000  0.51812500  1
  Li  Li7  1  0.84008300  0.50000000  0.58731600  1
  V  V8  1  0.39982400  0.25120500  0.27517300  1
  V  V9  1  0.14119350  0.50000000  0.51134500  1
  V  V10  1  0.31811550  0.50000000  0.75774600  1
  V  V11  1  0.33927750  0.00000000  0.00037700  1
  V  V12  1  0.39982400  0.74879500  0.27517300  1
  V  V13  1  0.89982400  0.75120500  0.27517300  1
  V  V14  1  0.64119350  0.00000000  0.51134500  1
  V  V15  1  0.81811550  0.00000000  0.75774600  1
  V  V16  1  0.83927750  0.50000000  0.00037700  1
  V  V17  1  0.89982400  0.24879500  0.27517300  1
  Cu  Cu18  1  0.08240600  0.74464800  0.80219900  1
  Cu  Cu19  1  0.08240600  0.25535200  0.80219900  1
  Cu  Cu20  1  0.17018150  0.00000000  0.29475100  1
  Cu  Cu21  1  0.58240600  0.24464800  0.80219900  1
  Cu  Cu22  1  0.58240600  0.75535200  0.80219900  1
  Cu  Cu23  1  0.67018150  0.50000000  0.29475100  1
  O  O24  1  0.08058650  0.73680150  0.41476000  1
  O  O25  1  0.02730950  0.50000000  0.64160000  1
  O  O26  1  0.18659250  0.50000000  0.88363900  1
  O  O27  1  0.49061250  0.50000000  0.71536900  1
  O  O28  1  0.00046700  0.00000000  0.20042100  1
  O  O29  1  0.08058650  0.26319850  0.41476000  1
  O  O30  1  0.25890100  0.71573300  0.64429200  1
  O  O31  1  0.25890100  0.28426700  0.64429200  1
  O  O32  1  0.17631850  0.00000000  0.92638200  1
  O  O33  1  0.33954250  0.50000000  0.39414200  1
  O  O34  1  0.26662350  0.23625850  0.15200800  1
  O  O35  1  0.26662350  0.76374150  0.15200800  1
  O  O36  1  0.34287900  0.00000000  0.39080400  1
  O  O37  1  0.40677150  0.23774050  0.91597300  1
  O  O38  1  0.47897750  0.00000000  0.16337900  1
  O  O39  1  0.40677150  0.76225950  0.91597300  1
  O  O40  1  0.58058650  0.23680150  0.41476000  1
  O  O41  1  0.52730950  0.00000000  0.64160000  1
  O  O42  1  0.68659250  0.00000000  0.88363900  1
  O  O43  1  0.99061250  0.00000000  0.71536900  1
  O  O44  1  0.50046700  0.50000000  0.20042100  1
  O  O45  1  0.58058650  0.76319850  0.41476000  1
  O  O46  1  0.75890100  0.21573300  0.64429200  1
  O  O47  1  0.75890100  0.78426700  0.64429200  1
  O  O48  1  0.67631850  0.50000000  0.92638200  1
  O  O49  1  0.83954250  0.00000000  0.39414200  1
  O  O50  1  0.76662350  0.73625850  0.15200800  1
  O  O51  1  0.76662350  0.26374150  0.15200800  1
  O  O52  1  0.84287900  0.50000000  0.39080400  1
  O  O53  1  0.90677150  0.73774050  0.91597300  1
  O  O54  1  0.97897750  0.50000000  0.16337900  1
  O  O55  1  0.90677150  0.26225950  0.91597300  1
