# generated using pymatgen
data_Na5Mn2P(CO4)4
_symmetry_space_group_name_H-M   'P 1'
_cell_length_a   13.88380800
_cell_length_b   14.12928600
_cell_length_c   9.89790199
_cell_angle_alpha   90.00000000
_cell_angle_beta   133.42664903
_cell_angle_gamma   90.00000000
_symmetry_Int_Tables_number   1
_chemical_formula_structural   Na5Mn2P(CO4)4
_chemical_formula_sum   'Na20 Mn8 P4 C16 O64'
_cell_volume   1410.13636077
_cell_formula_units_Z   4
loop_
 _symmetry_equiv_pos_site_id
 _symmetry_equiv_pos_as_xyz
  1  'x, y, z'
loop_
 _atom_site_type_symbol
 _atom_site_label
 _atom_site_symmetry_multiplicity
 _atom_site_fract_x
 _atom_site_fract_y
 _atom_site_fract_z
 _atom_site_occupancy
  Na  Na0  1  0.78717400  0.87205400  0.83840500  1
  Na  Na1  1  0.50000000  0.58422400  0.25000000  1
  Na  Na2  1  0.78576300  0.87393100  0.24206200  1
  Na  Na3  1  0.78717400  0.12794600  0.33840500  1
  Na  Na4  1  0.21423700  0.87393100  0.25793800  1
  Na  Na5  1  0.78576300  0.12606900  0.74206200  1
  Na  Na6  1  0.21282600  0.87205400  0.66159500  1
  Na  Na7  1  0.21423700  0.12606900  0.75793800  1
  Na  Na8  1  0.50000000  0.41577600  0.75000000  1
  Na  Na9  1  0.21282600  0.12794600  0.16159500  1
  Na  Na10  1  0.28717400  0.37205400  0.83840500  1
  Na  Na11  1  0.00000000  0.08422400  0.25000000  1
  Na  Na12  1  0.28576300  0.37393100  0.24206200  1
  Na  Na13  1  0.28717400  0.62794600  0.33840500  1
  Na  Na14  1  0.71423700  0.37393100  0.25793800  1
  Na  Na15  1  0.28576300  0.62606900  0.74206200  1
  Na  Na16  1  0.71282600  0.37205400  0.66159500  1
  Na  Na17  1  0.71423700  0.62606900  0.75793800  1
  Na  Na18  1  0.00000000  0.91577600  0.75000000  1
  Na  Na19  1  0.71282600  0.62794600  0.16159500  1
  Mn  Mn20  1  0.25000000  0.75000000  0.00000000  1
  Mn  Mn21  1  0.50000000  0.00000000  0.50000000  1
  Mn  Mn22  1  0.50000000  0.00000000  0.00000000  1
  Mn  Mn23  1  0.25000000  0.25000000  0.50000000  1
  Mn  Mn24  1  0.75000000  0.25000000  0.00000000  1
  Mn  Mn25  1  0.00000000  0.50000000  0.50000000  1
  Mn  Mn26  1  0.00000000  0.50000000  0.00000000  1
  Mn  Mn27  1  0.75000000  0.75000000  0.50000000  1
  P  P28  1  0.50000000  0.62468500  0.75000000  1
  P  P29  1  0.50000000  0.37531500  0.25000000  1
  P  P30  1  0.00000000  0.12468500  0.75000000  1
  P  P31  1  0.00000000  0.87531500  0.25000000  1
  C  C32  1  0.49901850  0.78750650  0.43143700  1
  C  C33  1  0.68496800  0.03557900  0.94003400  1
  C  C34  1  0.31503200  0.03557900  0.55996600  1
  C  C35  1  0.49901850  0.21249350  0.93143700  1
  C  C36  1  0.50098150  0.78750650  0.06856300  1
  C  C37  1  0.68496800  0.96442100  0.44003400  1
  C  C38  1  0.31503200  0.96442100  0.05996600  1
  C  C39  1  0.50098150  0.21249350  0.56856300  1
  C  C40  1  0.99901850  0.28750650  0.43143700  1
  C  C41  1  0.18496800  0.53557900  0.94003400  1
  C  C42  1  0.81503200  0.53557900  0.55996600  1
  C  C43  1  0.99901850  0.71249350  0.93143700  1
  C  C44  1  0.00098150  0.28750650  0.06856300  1
  C  C45  1  0.18496800  0.46442100  0.44003400  1
  C  C46  1  0.81503200  0.46442100  0.05996600  1
  C  C47  1  0.00098150  0.71249350  0.56856300  1
  O  O48  1  0.58223950  0.72552550  0.46357000  1
  O  O49  1  0.67848000  0.02074400  0.80581200  1
  O  O50  1  0.54714700  0.86223200  0.53684100  1
  O  O51  1  0.75716800  0.10379000  0.05803600  1
  O  O52  1  0.37328950  0.77270650  0.30142300  1
  O  O53  1  0.50224550  0.56063950  0.62414000  1
  O  O54  1  0.62713150  0.68594050  0.87440100  1
  O  O55  1  0.62308550  0.97793950  0.96251900  1
  O  O56  1  0.58223950  0.27447450  0.96357000  1
  O  O57  1  0.37691450  0.97793950  0.53748100  1
  O  O58  1  0.49775450  0.56063950  0.87586000  1
  O  O59  1  0.37286850  0.68594050  0.62559900  1
  O  O60  1  0.67848000  0.97925600  0.30581200  1
  O  O61  1  0.62671050  0.77270650  0.19857700  1
  O  O62  1  0.54714700  0.13776800  0.03684100  1
  O  O63  1  0.24283200  0.10379000  0.44196400  1
  O  O64  1  0.75716800  0.89621000  0.55803600  1
  O  O65  1  0.45285300  0.86223200  0.96315900  1
  O  O66  1  0.32152000  0.02074400  0.69418800  1
  O  O67  1  0.37328950  0.22729350  0.80142300  1
  O  O68  1  0.62713150  0.31405950  0.37440100  1
  O  O69  1  0.50224550  0.43936050  0.12414000  1
  O  O70  1  0.62308550  0.02206050  0.46251900  1
  O  O71  1  0.41776050  0.72552550  0.03643000  1
  O  O72  1  0.37691450  0.02206050  0.03748100  1
  O  O73  1  0.37286850  0.31405950  0.12559900  1
  O  O74  1  0.49775450  0.43936050  0.37586000  1
  O  O75  1  0.62671050  0.22729350  0.69857700  1
  O  O76  1  0.24283200  0.89621000  0.94196400  1
  O  O77  1  0.45285300  0.13776800  0.46315900  1
  O  O78  1  0.32152000  0.97925600  0.19418800  1
  O  O79  1  0.41776050  0.27447450  0.53643000  1
  O  O80  1  0.08223950  0.22552550  0.46357000  1
  O  O81  1  0.17848000  0.52074400  0.80581200  1
  O  O82  1  0.04714700  0.36223200  0.53684100  1
  O  O83  1  0.25716800  0.60379000  0.05803600  1
  O  O84  1  0.87328950  0.27270650  0.30142300  1
  O  O85  1  0.00224550  0.06063950  0.62414000  1
  O  O86  1  0.12713150  0.18594050  0.87440100  1
  O  O87  1  0.12308550  0.47793950  0.96251900  1
  O  O88  1  0.08223950  0.77447450  0.96357000  1
  O  O89  1  0.87691450  0.47793950  0.53748100  1
  O  O90  1  0.99775450  0.06063950  0.87586000  1
  O  O91  1  0.87286850  0.18594050  0.62559900  1
  O  O92  1  0.17848000  0.47925600  0.30581200  1
  O  O93  1  0.12671050  0.27270650  0.19857700  1
  O  O94  1  0.04714700  0.63776800  0.03684100  1
  O  O95  1  0.74283200  0.60379000  0.44196400  1
  O  O96  1  0.25716800  0.39621000  0.55803600  1
  O  O97  1  0.95285300  0.36223200  0.96315900  1
  O  O98  1  0.82152000  0.52074400  0.69418800  1
  O  O99  1  0.87328950  0.72729350  0.80142300  1
  O  O100  1  0.12713150  0.81405950  0.37440100  1
  O  O101  1  0.00224550  0.93936050  0.12414000  1
  O  O102  1  0.12308550  0.52206050  0.46251900  1
  O  O103  1  0.91776050  0.22552550  0.03643000  1
  O  O104  1  0.87691450  0.52206050  0.03748100  1
  O  O105  1  0.87286850  0.81405950  0.12559900  1
  O  O106  1  0.99775450  0.93936050  0.37586000  1
  O  O107  1  0.12671050  0.72729350  0.69857700  1
  O  O108  1  0.74283200  0.39621000  0.94196400  1
  O  O109  1  0.95285300  0.63776800  0.46315900  1
  O  O110  1  0.82152000  0.47925600  0.19418800  1
  O  O111  1  0.91776050  0.77447450  0.53643000  1
