# generated using pymatgen
data_Li3Ni2(CO3)4
_symmetry_space_group_name_H-M   'P 1'
_cell_length_a   6.88485500
_cell_length_b   9.47496400
_cell_length_c   8.37218803
_cell_angle_alpha   90.00000000
_cell_angle_beta   109.93501485
_cell_angle_gamma   90.00000000
_symmetry_Int_Tables_number   1
_chemical_formula_structural   Li3Ni2(CO3)4
_chemical_formula_sum   'Li6 Ni4 C8 O24'
_cell_volume   513.42395119
_cell_formula_units_Z   2
loop_
 _symmetry_equiv_pos_site_id
 _symmetry_equiv_pos_as_xyz
  1  'x, y, z'
loop_
 _atom_site_type_symbol
 _atom_site_label
 _atom_site_symmetry_multiplicity
 _atom_site_fract_x
 _atom_site_fract_y
 _atom_site_fract_z
 _atom_site_occupancy
  Li  Li0  1  0.69887000  0.80482700  0.83152600  1
  Li  Li1  1  0.74781600  0.11390000  0.09899000  1
  Li  Li2  1  0.25218400  0.61390000  0.90101000  1
  Li  Li3  1  0.30113000  0.30482700  0.16847400  1
  Li  Li4  1  0.24656400  0.38613500  0.59758700  1
  Li  Li5  1  0.75343600  0.88613500  0.40241300  1
  Ni  Ni6  1  0.70973200  0.61453800  0.20083300  1
  Ni  Ni7  1  0.29026800  0.11453800  0.79916700  1
  Ni  Ni8  1  0.21216400  0.88383000  0.69958700  1
  Ni  Ni9  1  0.78783600  0.38383000  0.30041300  1
  C  C10  1  0.50619900  0.39395600  0.97401700  1
  C  C11  1  0.49380100  0.89395600  0.02598300  1
  C  C12  1  0.48265700  0.50973400  0.39408100  1
  C  C13  1  0.51734300  0.00973400  0.60591900  1
  C  C14  1  0.97907700  0.99550100  0.88791200  1
  C  C15  1  0.02092300  0.49550100  0.11208800  1
  C  C16  1  0.00773800  0.10757800  0.47937500  1
  C  C17  1  0.99226200  0.60757800  0.52062500  1
  O  O18  1  0.62157900  0.84574000  0.16114300  1
  O  O19  1  0.53440400  0.52884500  0.99488200  1
  O  O20  1  0.60096600  0.30588100  0.09710800  1
  O  O21  1  0.39903400  0.80588100  0.90289200  1
  O  O22  1  0.46559600  0.02884500  0.00511800  1
  O  O23  1  0.37842100  0.34574000  0.83885700  1
  O  O24  1  0.63039300  0.01766700  0.51721100  1
  O  O25  1  0.55961300  0.38429000  0.37525000  1
  O  O26  1  0.51859700  0.61908200  0.31501200  1
  O  O27  1  0.48140300  0.11908200  0.68498800  1
  O  O28  1  0.44038700  0.88429000  0.62475000  1
  O  O29  1  0.15526000  0.48235900  0.04050100  1
  O  O30  1  0.36960700  0.51766700  0.48278900  1
  O  O31  1  0.08509800  0.11044200  0.90169700  1
  O  O32  1  0.00197100  0.88660900  0.79848300  1
  O  O33  1  0.99802900  0.38660900  0.20151700  1
  O  O34  1  0.91490200  0.61044200  0.09830300  1
  O  O35  1  0.84474000  0.98235900  0.95949900  1
  O  O36  1  0.11827600  0.65507200  0.65896800  1
  O  O37  1  0.03762300  0.97157700  0.49633500  1
  O  O38  1  0.10469800  0.19363100  0.60012600  1
  O  O39  1  0.89530200  0.69363100  0.39987400  1
  O  O40  1  0.96237700  0.47157700  0.50366500  1
  O  O41  1  0.88172400  0.15507200  0.34103200  1
