# generated using pymatgen
data_Na5LiFe2P2(CO7)2
_symmetry_space_group_name_H-M   'P 1'
_cell_length_a   5.22573378
_cell_length_b   6.69887529
_cell_length_c   8.95215688
_cell_angle_alpha   90.00000000
_cell_angle_beta   92.67194190
_cell_angle_gamma   90.00000000
_symmetry_Int_Tables_number   1
_chemical_formula_structural   Na5LiFe2P2(CO7)2
_chemical_formula_sum   'Na5 Li1 Fe2 P2 C2 O14'
_cell_volume   313.04332397
_cell_formula_units_Z   1
loop_
 _symmetry_equiv_pos_site_id
 _symmetry_equiv_pos_as_xyz
  1  'x, y, z'
loop_
 _atom_site_type_symbol
 _atom_site_label
 _atom_site_symmetry_multiplicity
 _atom_site_fract_x
 _atom_site_fract_y
 _atom_site_fract_z
 _atom_site_occupancy
  Na  Na0  1  0.25483400  0.25545600  0.73840300  1
  Na  Na1  1  0.25483400  0.74454400  0.73840300  1
  Na  Na2  1  0.73885800  0.75451900  0.26688900  1
  Na  Na3  1  0.73885800  0.24548100  0.26688900  1
  Na  Na4  1  0.23208300  0.00000000  0.08406300  1
  Li  Li5  1  0.76862200  0.50000000  0.89586200  1
  Fe  Fe6  1  0.77683500  0.00000000  0.65382500  1
  Fe  Fe7  1  0.21808100  0.50000000  0.35190600  1
  P  P8  1  0.71115500  0.50000000  0.59130500  1
  P  P9  1  0.28026600  0.00000000  0.41536500  1
  C  C10  1  0.71869900  0.00000000  0.94358700  1
  C  C11  1  0.29403300  0.50000000  0.04840100  1
  O  O12  1  0.38243700  0.50000000  0.91540800  1
  O  O13  1  0.94320300  0.00000000  0.88589800  1
  O  O14  1  0.51557400  0.00000000  0.85292800  1
  O  O15  1  0.79052500  0.31576000  0.69080300  1
  O  O16  1  0.79052500  0.68424000  0.69080300  1
  O  O17  1  0.15222900  0.00000000  0.56727300  1
  O  O18  1  0.41458600  0.50000000  0.56272500  1
  O  O19  1  0.57797300  0.00000000  0.44142000  1
  O  O20  1  0.84294200  0.50000000  0.44029100  1
  O  O21  1  0.19958100  0.81335400  0.31879300  1
  O  O22  1  0.19958100  0.18664600  0.31879300  1
  O  O23  1  0.45746400  0.50000000  0.16414700  1
  O  O24  1  0.04916000  0.50000000  0.06932100  1
  O  O25  1  0.69652100  0.00000000  0.08669200  1
