# generated using pymatgen
data_Li6Mn5FeO12
_symmetry_space_group_name_H-M   'P 1'
_cell_length_a   5.11559600
_cell_length_b   9.30265000
_cell_length_c   10.25008616
_cell_angle_alpha   90.00000000
_cell_angle_beta   91.67469213
_cell_angle_gamma   90.00000000
_symmetry_Int_Tables_number   1
_chemical_formula_structural   Li6Mn5FeO12
_chemical_formula_sum   'Li12 Mn10 Fe2 O24'
_cell_volume   487.57889081
_cell_formula_units_Z   2
loop_
 _symmetry_equiv_pos_site_id
 _symmetry_equiv_pos_as_xyz
  1  'x, y, z'
loop_
 _atom_site_type_symbol
 _atom_site_label
 _atom_site_symmetry_multiplicity
 _atom_site_fract_x
 _atom_site_fract_y
 _atom_site_fract_z
 _atom_site_occupancy
  Li  Li0  1  0.33090600  0.66523400  0.27545600  1
  Li  Li1  1  0.66809400  0.00000000  0.72415100  1
  Li  Li2  1  0.83090600  0.83476600  0.27545600  1
  Li  Li3  1  0.33190600  0.00000000  0.27584900  1
  Li  Li4  1  0.66909400  0.66523400  0.72454400  1
  Li  Li5  1  0.16909400  0.83476600  0.72454400  1
  Li  Li6  1  0.83090600  0.16523400  0.27545600  1
  Li  Li7  1  0.16809400  0.50000000  0.72415100  1
  Li  Li8  1  0.33090600  0.33476600  0.27545600  1
  Li  Li9  1  0.83190600  0.50000000  0.27584900  1
  Li  Li10  1  0.16909400  0.16523400  0.72454400  1
  Li  Li11  1  0.66909400  0.33476600  0.72454400  1
  Mn  Mn12  1  0.00000000  0.66470100  0.50000000  1
  Mn  Mn13  1  0.00000000  0.83354200  0.00000000  1
  Mn  Mn14  1  0.50000000  0.00000000  0.00000000  1
  Mn  Mn15  1  0.50000000  0.83529900  0.50000000  1
  Mn  Mn16  1  0.50000000  0.66645800  0.00000000  1
  Mn  Mn17  1  0.50000000  0.16470100  0.50000000  1
  Mn  Mn18  1  0.50000000  0.33354200  0.00000000  1
  Mn  Mn19  1  0.00000000  0.50000000  0.00000000  1
  Mn  Mn20  1  0.00000000  0.33529900  0.50000000  1
  Mn  Mn21  1  0.00000000  0.16645800  0.00000000  1
  Fe  Fe22  1  0.00000000  0.00000000  0.50000000  1
  Fe  Fe23  1  0.50000000  0.50000000  0.50000000  1
  O  O24  1  0.81380900  0.00000000  0.89811000  1
  O  O25  1  0.18526750  0.66632850  0.10148400  1
  O  O26  1  0.17203450  0.83952950  0.38765700  1
  O  O27  1  0.67885200  0.00000000  0.38299400  1
  O  O28  1  0.32114800  0.00000000  0.61700600  1
  O  O29  1  0.82796550  0.83952950  0.61234300  1
  O  O30  1  0.81473250  0.66632850  0.89851600  1
  O  O31  1  0.68526750  0.83367150  0.10148400  1
  O  O32  1  0.18619100  0.00000000  0.10189000  1
  O  O33  1  0.67203450  0.66047050  0.38765700  1
  O  O34  1  0.32796550  0.66047050  0.61234300  1
  O  O35  1  0.31473250  0.83367150  0.89851600  1
  O  O36  1  0.31380900  0.50000000  0.89811000  1
  O  O37  1  0.68526750  0.16632850  0.10148400  1
  O  O38  1  0.67203450  0.33952950  0.38765700  1
  O  O39  1  0.17885200  0.50000000  0.38299400  1
  O  O40  1  0.82114800  0.50000000  0.61700600  1
  O  O41  1  0.32796550  0.33952950  0.61234300  1
  O  O42  1  0.31473250  0.16632850  0.89851600  1
  O  O43  1  0.18526750  0.33367150  0.10148400  1
  O  O44  1  0.68619100  0.50000000  0.10189000  1
  O  O45  1  0.17203450  0.16047050  0.38765700  1
  O  O46  1  0.82796550  0.16047050  0.61234300  1
  O  O47  1  0.81473250  0.33367150  0.89851600  1
