# generated using pymatgen
data_Li3Cr3FeO8
_symmetry_space_group_name_H-M   'P 1'
_cell_length_a   10.28563000
_cell_length_b   5.93258200
_cell_length_c   5.96188269
_cell_angle_alpha   90.00000000
_cell_angle_beta   124.85353371
_cell_angle_gamma   90.00000000
_symmetry_Int_Tables_number   1
_chemical_formula_structural   Li3Cr3FeO8
_chemical_formula_sum   'Li6 Cr6 Fe2 O16'
_cell_volume   298.53678232
_cell_formula_units_Z   2
loop_
 _symmetry_equiv_pos_site_id
 _symmetry_equiv_pos_as_xyz
  1  'x, y, z'
loop_
 _atom_site_type_symbol
 _atom_site_label
 _atom_site_symmetry_multiplicity
 _atom_site_fract_x
 _atom_site_fract_y
 _atom_site_fract_z
 _atom_site_occupancy
  Li  Li0  1  0.25000000  0.75000000  0.50000000  1
  Li  Li1  1  0.00000000  0.50000000  0.50000000  1
  Li  Li2  1  0.25000000  0.25000000  0.50000000  1
  Li  Li3  1  0.75000000  0.25000000  0.50000000  1
  Li  Li4  1  0.50000000  0.00000000  0.50000000  1
  Li  Li5  1  0.75000000  0.75000000  0.50000000  1
  Cr  Cr6  1  0.00000000  0.50000000  0.00000000  1
  Cr  Cr7  1  0.25000000  0.75000000  0.00000000  1
  Cr  Cr8  1  0.25000000  0.25000000  0.00000000  1
  Cr  Cr9  1  0.50000000  0.00000000  0.00000000  1
  Cr  Cr10  1  0.75000000  0.25000000  0.00000000  1
  Cr  Cr11  1  0.75000000  0.75000000  0.00000000  1
  Fe  Fe12  1  0.00000000  0.00000000  0.00000000  1
  Fe  Fe13  1  0.50000000  0.50000000  0.00000000  1
  O  O14  1  0.26686100  0.00000000  0.78465600  1
  O  O15  1  0.49096450  0.23639450  0.21412800  1
  O  O16  1  0.49096450  0.76360550  0.21412800  1
  O  O17  1  0.24004800  0.00000000  0.22346800  1
  O  O18  1  0.25995200  0.50000000  0.77653200  1
  O  O19  1  0.00903550  0.73639450  0.78587200  1
  O  O20  1  0.00903550  0.26360550  0.78587200  1
  O  O21  1  0.23313900  0.50000000  0.21534400  1
  O  O22  1  0.76686100  0.50000000  0.78465600  1
  O  O23  1  0.99096450  0.73639450  0.21412800  1
  O  O24  1  0.99096450  0.26360550  0.21412800  1
  O  O25  1  0.74004800  0.50000000  0.22346800  1
  O  O26  1  0.75995200  0.00000000  0.77653200  1
  O  O27  1  0.50903550  0.23639450  0.78587200  1
  O  O28  1  0.50903550  0.76360550  0.78587200  1
  O  O29  1  0.73313900  0.00000000  0.21534400  1
