# generated using pymatgen
data_Li4Mn3Co3(NiO8)2
_symmetry_space_group_name_H-M   'P 1'
_cell_length_a   9.92702600
_cell_length_b   5.75155400
_cell_length_c   9.55577939
_cell_angle_alpha   90.00000000
_cell_angle_beta   90.06627302
_cell_angle_gamma   90.00000000
_symmetry_Int_Tables_number   1
_chemical_formula_structural   Li4Mn3Co3(NiO8)2
_chemical_formula_sum   'Li8 Mn6 Co6 Ni4 O32'
_cell_volume   545.59475344
_cell_formula_units_Z   2
loop_
 _symmetry_equiv_pos_site_id
 _symmetry_equiv_pos_as_xyz
  1  'x, y, z'
loop_
 _atom_site_type_symbol
 _atom_site_label
 _atom_site_symmetry_multiplicity
 _atom_site_fract_x
 _atom_site_fract_y
 _atom_site_fract_z
 _atom_site_occupancy
  Li  Li0  1  0.33569300  0.00000000  0.10524100  1
  Li  Li1  1  0.99520300  0.00000000  0.00113300  1
  Li  Li2  1  0.99423000  0.00000000  0.50390300  1
  Li  Li3  1  0.66933300  0.00000000  0.60914700  1
  Li  Li4  1  0.83569300  0.50000000  0.10524100  1
  Li  Li5  1  0.49520300  0.50000000  0.00113300  1
  Li  Li6  1  0.49423000  0.50000000  0.50390300  1
  Li  Li7  1  0.16933300  0.50000000  0.60914700  1
  Mn  Mn8  1  0.17018200  0.00000000  0.78430200  1
  Mn  Mn9  1  0.58522900  0.24708400  0.28464500  1
  Mn  Mn10  1  0.58522900  0.75291600  0.28464500  1
  Mn  Mn11  1  0.67018200  0.50000000  0.78430200  1
  Mn  Mn12  1  0.08522900  0.74708400  0.28464500  1
  Mn  Mn13  1  0.08522900  0.25291600  0.28464500  1
  Co  Co14  1  0.41679750  0.24733450  0.78666900  1
  Co  Co15  1  0.41679750  0.75266550  0.78666900  1
  Co  Co16  1  0.83204600  0.00000000  0.28658000  1
  Co  Co17  1  0.91679750  0.74733450  0.78666900  1
  Co  Co18  1  0.91679750  0.25266550  0.78666900  1
  Co  Co19  1  0.33204600  0.50000000  0.28658000  1
  Ni  Ni20  1  0.33297400  0.00000000  0.51105200  1
  Ni  Ni21  1  0.66573400  0.00000000  0.00958700  1
  Ni  Ni22  1  0.83297400  0.50000000  0.51105200  1
  Ni  Ni23  1  0.16573400  0.50000000  0.00958700  1
  O  O24  1  0.41760700  0.26352500  0.39161700  1
  O  O25  1  0.48320200  0.00000000  0.67572500  1
  O  O26  1  0.33437500  0.00000000  0.89135400  1
  O  O27  1  0.99955500  0.00000000  0.68925700  1
  O  O28  1  0.99917800  0.00000000  0.18739700  1
  O  O29  1  0.41760700  0.73647500  0.39161700  1
  O  O30  1  0.26209650  0.22603350  0.67032200  1
  O  O31  1  0.26209650  0.77396650  0.67032200  1
  O  O32  1  0.84030500  0.00000000  0.88720500  1
  O  O33  1  0.15763000  0.00000000  0.39633500  1
  O  O34  1  0.74461450  0.22230250  0.17022800  1
  O  O35  1  0.74461450  0.77769750  0.17022800  1
  O  O36  1  0.66656700  0.00000000  0.39240600  1
  O  O37  1  0.57708650  0.26062850  0.89309000  1
  O  O38  1  0.51739500  0.00000000  0.16839300  1
  O  O39  1  0.57708650  0.73937150  0.89309000  1
  O  O40  1  0.91760700  0.76352500  0.39161700  1
  O  O41  1  0.98320200  0.50000000  0.67572500  1
  O  O42  1  0.83437500  0.50000000  0.89135400  1
  O  O43  1  0.49955500  0.50000000  0.68925700  1
  O  O44  1  0.49917800  0.50000000  0.18739700  1
  O  O45  1  0.91760700  0.23647500  0.39161700  1
  O  O46  1  0.76209650  0.72603350  0.67032200  1
  O  O47  1  0.76209650  0.27396650  0.67032200  1
  O  O48  1  0.34030500  0.50000000  0.88720500  1
  O  O49  1  0.65763000  0.50000000  0.39633500  1
  O  O50  1  0.24461450  0.72230250  0.17022800  1
  O  O51  1  0.24461450  0.27769750  0.17022800  1
  O  O52  1  0.16656700  0.50000000  0.39240600  1
  O  O53  1  0.07708650  0.76062850  0.89309000  1
  O  O54  1  0.01739500  0.50000000  0.16839300  1
  O  O55  1  0.07708650  0.23937150  0.89309000  1
