# generated using pymatgen
data_LiMn5O3F5
_symmetry_space_group_name_H-M   'P 1'
_cell_length_a   6.45414375
_cell_length_b   6.45414375
_cell_length_c   15.71058891
_cell_angle_alpha   90.00000000
_cell_angle_beta   90.00000000
_cell_angle_gamma   120.00000000
_symmetry_Int_Tables_number   1
_chemical_formula_structural   LiMn5O3F5
_chemical_formula_sum   'Li3 Mn15 O9 F15'
_cell_volume   566.76153109
_cell_formula_units_Z   3
loop_
 _symmetry_equiv_pos_site_id
 _symmetry_equiv_pos_as_xyz
  1  'x, y, z'
loop_
 _atom_site_type_symbol
 _atom_site_label
 _atom_site_symmetry_multiplicity
 _atom_site_fract_x
 _atom_site_fract_y
 _atom_site_fract_z
 _atom_site_occupancy
  Li  Li0  1  0.33333333  0.66666667  0.91342167  1
  Li  Li1  1  0.00000000  0.00000000  0.24675500  1
  Li  Li2  1  0.66666667  0.33333333  0.58008833  1
  Mn  Mn3  1  0.33333333  0.66666667  0.68300267  1
  Mn  Mn4  1  0.50380400  0.00760800  0.11770900  1
  Mn  Mn5  1  0.99239200  0.49619600  0.11770900  1
  Mn  Mn6  1  0.33333333  0.66666667  0.29852467  1
  Mn  Mn7  1  0.50380400  0.49619600  0.11770900  1
  Mn  Mn8  1  0.00000000  0.00000000  0.01633600  1
  Mn  Mn9  1  0.17047067  0.34094133  0.45104233  1
  Mn  Mn10  1  0.65905867  0.82952933  0.45104233  1
  Mn  Mn11  1  0.00000000  0.00000000  0.63185800  1
  Mn  Mn12  1  0.17047067  0.82952933  0.45104233  1
  Mn  Mn13  1  0.66666667  0.33333333  0.34966933  1
  Mn  Mn14  1  0.83713733  0.67427467  0.78437567  1
  Mn  Mn15  1  0.32572533  0.16286267  0.78437567  1
  Mn  Mn16  1  0.66666667  0.33333333  0.96519133  1
  Mn  Mn17  1  0.83713733  0.16286267  0.78437567  1
  O  O18  1  0.48777867  0.97555733  0.38066733  1
  O  O19  1  0.02444267  0.51222133  0.38066733  1
  O  O20  1  0.48777867  0.51222133  0.38066733  1
  O  O21  1  0.15444533  0.30889067  0.71400067  1
  O  O22  1  0.69110933  0.84555467  0.71400067  1
  O  O23  1  0.15444533  0.84555467  0.71400067  1
  O  O24  1  0.82111200  0.64222400  0.04733400  1
  O  O25  1  0.35777600  0.17888800  0.04733400  1
  O  O26  1  0.82111200  0.17888800  0.04733400  1
  F  F27  1  0.33333333  0.66666667  0.04242167  1
  F  F28  1  0.17925300  0.82074700  0.20314500  1
  F  F29  1  0.17925300  0.35850600  0.20314500  1
  F  F30  1  0.64149400  0.82074700  0.20314500  1
  F  F31  1  0.33333333  0.66666667  0.54139767  1
  F  F32  1  0.00000000  0.00000000  0.37575500  1
  F  F33  1  0.84591967  0.15408033  0.53647833  1
  F  F34  1  0.84591967  0.69183933  0.53647833  1
  F  F35  1  0.30816067  0.15408033  0.53647833  1
  F  F36  1  0.00000000  0.00000000  0.87473100  1
  F  F37  1  0.66666667  0.33333333  0.70908833  1
  F  F38  1  0.51258633  0.48741367  0.86981167  1
  F  F39  1  0.51258633  0.02517267  0.86981167  1
  F  F40  1  0.97482733  0.48741367  0.86981167  1
  F  F41  1  0.66666667  0.33333333  0.20806433  1
