# generated using pymatgen
data_K3NaFeCl6
_symmetry_space_group_name_H-M   'P 1'
_cell_length_a   12.86097946
_cell_length_b   12.86097946
_cell_length_c   6.93519571
_cell_angle_alpha   90.00000000
_cell_angle_beta   90.00000000
_cell_angle_gamma   120.00000000
_symmetry_Int_Tables_number   1
_chemical_formula_structural   K3NaFeCl6
_chemical_formula_sum   'K9 Na3 Fe3 Cl18'
_cell_volume   993.43039204
_cell_formula_units_Z   3
loop_
 _symmetry_equiv_pos_site_id
 _symmetry_equiv_pos_as_xyz
  1  'x, y, z'
loop_
 _atom_site_type_symbol
 _atom_site_label
 _atom_site_symmetry_multiplicity
 _atom_site_fract_x
 _atom_site_fract_y
 _atom_site_fract_z
 _atom_site_occupancy
  K  K0  1  0.16666667  0.33333333  0.33333333  1
  K  K1  1  0.66666667  0.83333333  0.33333333  1
  K  K2  1  0.83333333  0.16666667  0.66666667  1
  K  K3  1  0.83333333  0.66666667  0.66666667  1
  K  K4  1  0.33333333  0.16666667  0.66666667  1
  K  K5  1  0.50000000  0.50000000  0.00000000  1
  K  K6  1  0.50000000  0.00000000  0.00000000  1
  K  K7  1  0.00000000  0.50000000  0.00000000  1
  K  K8  1  0.16666667  0.83333333  0.33333333  1
  Na  Na9  1  0.00000000  0.00000000  0.00000000  1
  Na  Na10  1  0.66666667  0.33333333  0.33333333  1
  Na  Na11  1  0.33333333  0.66666667  0.66666667  1
  Fe  Fe12  1  0.00000000  0.00000000  0.50000000  1
  Fe  Fe13  1  0.66666667  0.33333333  0.83333333  1
  Fe  Fe14  1  0.33333333  0.66666667  0.16666667  1
  Cl  Cl15  1  0.09127700  0.18255400  0.71421300  1
  Cl  Cl16  1  0.51588733  0.75794367  0.95245367  1
  Cl  Cl17  1  0.90872300  0.09127700  0.28578700  1
  Cl  Cl18  1  0.81744600  0.90872300  0.71421300  1
  Cl  Cl19  1  0.75794367  0.24205633  0.04754633  1
  Cl  Cl20  1  0.24205633  0.48411267  0.95245367  1
  Cl  Cl21  1  0.75794367  0.51588733  0.04754633  1
  Cl  Cl22  1  0.18255400  0.09127700  0.28578700  1
  Cl  Cl23  1  0.57538967  0.42461033  0.61912033  1
  Cl  Cl24  1  0.48411267  0.24205633  0.04754633  1
  Cl  Cl25  1  0.42461033  0.57538967  0.38087967  1
  Cl  Cl26  1  0.90872300  0.81744600  0.28578700  1
  Cl  Cl27  1  0.42461033  0.84922067  0.38087967  1
  Cl  Cl28  1  0.84922067  0.42461033  0.61912033  1
  Cl  Cl29  1  0.24205633  0.75794367  0.95245367  1
  Cl  Cl30  1  0.15077933  0.57538967  0.38087967  1
  Cl  Cl31  1  0.09127700  0.90872300  0.71421300  1
  Cl  Cl32  1  0.57538967  0.15077933  0.61912033  1
