# generated using pymatgen
data_MnFe3Sn2(PO4)6
_symmetry_space_group_name_H-M   'P 1'
_cell_length_a   8.75314011
_cell_length_b   8.75314011
_cell_length_c   21.20789060
_cell_angle_alpha   90.00000000
_cell_angle_beta   90.00000000
_cell_angle_gamma   120.00000000
_symmetry_Int_Tables_number   1
_chemical_formula_structural   MnFe3Sn2(PO4)6
_chemical_formula_sum   'Mn3 Fe9 Sn6 P18 O72'
_cell_volume   1407.20012961
_cell_formula_units_Z   3
loop_
 _symmetry_equiv_pos_site_id
 _symmetry_equiv_pos_as_xyz
  1  'x, y, z'
loop_
 _atom_site_type_symbol
 _atom_site_label
 _atom_site_symmetry_multiplicity
 _atom_site_fract_x
 _atom_site_fract_y
 _atom_site_fract_z
 _atom_site_occupancy
  Mn  Mn0  1  0.33333333  0.66666667  0.81986367  1
  Mn  Mn1  1  0.00000000  0.00000000  0.15319700  1
  Mn  Mn2  1  0.66666667  0.33333333  0.48653033  1
  Fe  Fe3  1  0.33333333  0.66666667  0.51534667  1
  Fe  Fe4  1  0.33333333  0.66666667  0.31545367  1
  Fe  Fe5  1  0.33333333  0.66666667  0.01747967  1
  Fe  Fe6  1  0.00000000  0.00000000  0.84868000  1
  Fe  Fe7  1  0.00000000  0.00000000  0.64878700  1
  Fe  Fe8  1  0.00000000  0.00000000  0.35081300  1
  Fe  Fe9  1  0.66666667  0.33333333  0.18201333  1
  Fe  Fe10  1  0.66666667  0.33333333  0.98212033  1
  Fe  Fe11  1  0.66666667  0.33333333  0.68414633  1
  Sn  Sn12  1  0.33333333  0.66666667  0.66775767  1
  Sn  Sn13  1  0.33333333  0.66666667  0.16782667  1
  Sn  Sn14  1  0.00000000  0.00000000  0.00109100  1
  Sn  Sn15  1  0.00000000  0.00000000  0.50116000  1
  Sn  Sn16  1  0.66666667  0.33333333  0.33442433  1
  Sn  Sn17  1  0.66666667  0.33333333  0.83449333  1
  P  P18  1  0.30035133  0.00164167  0.25186067  1
  P  P19  1  0.99835833  0.29870967  0.25186067  1
  P  P20  1  0.96162600  0.62777300  0.08097100  1
  P  P21  1  0.66614700  0.03837400  0.08097100  1
  P  P22  1  0.37222700  0.33385300  0.08097100  1
  P  P23  1  0.70129033  0.69964867  0.25186067  1
  P  P24  1  0.96701800  0.33497500  0.58519400  1
  P  P25  1  0.66502500  0.63204300  0.58519400  1
  P  P26  1  0.62829267  0.96110633  0.41430433  1
  P  P27  1  0.33281367  0.37170733  0.41430433  1
  P  P28  1  0.03889367  0.66718633  0.41430433  1
  P  P29  1  0.36795700  0.03298200  0.58519400  1
  P  P30  1  0.63368467  0.66830833  0.91852733  1
  P  P31  1  0.33169167  0.96537633  0.91852733  1
  P  P32  1  0.29495933  0.29443967  0.74763767  1
  P  P33  1  0.99948033  0.70504067  0.74763767  1
  P  P34  1  0.70556033  0.00051967  0.74763767  1
  P  P35  1  0.03462367  0.36631533  0.91852733  1
  O  O36  1  0.14574067  0.68261333  0.35602433  1
  O  O37  1  0.53687267  0.85425933  0.35602433  1
  O  O38  1  0.49275867  0.17054433  0.26103033  1
  O  O39  1  0.31738667  0.46312733  0.35602433  1
  O  O40  1  0.21957867  0.00842933  0.18991933  1
  O  O41  1  0.33203933  0.84022767  0.24812967  1
  O  O42  1  0.82945567  0.32221433  0.26103033  1
  O  O43  1  0.15977233  0.49181167  0.24812967  1
  O  O44  1  0.86117000  0.53818700  0.14172400  1
  O  O45  1  0.50818833  0.66796067  0.24812967  1
  O  O46  1  0.98379200  0.81711700  0.07096700  1
  O  O47  1  0.67701700  0.13883000  0.14172400  1
  O  O48  1  0.99157067  0.21114933  0.18991933  1
  O  O49  1  0.67778567  0.50724133  0.26103033  1
  O  O50  1  0.15201733  0.65460767  0.08822267  1
  O  O51  1  0.78885067  0.78042133  0.18991933  1
  O  O52  1  0.50259033  0.84798267  0.08822267  1
  O  O53  1  0.83332500  0.01620800  0.07096700  1
  O  O54  1  0.34539233  0.49740967  0.08822267  1
  O  O55  1  0.46181300  0.32298300  0.14172400  1
  O  O56  1  0.33611467  0.86511033  0.97657333  1
  O  O57  1  0.18288300  0.16667500  0.07096700  1
  O  O58  1  0.13488967  0.47100433  0.97657333  1
  O  O59  1  0.52899567  0.66388533  0.97657333  1
  O  O60  1  0.81240733  0.01594667  0.68935767  1
  O  O61  1  0.20353933  0.18759267  0.68935767  1
  O  O62  1  0.15942533  0.50387767  0.59436367  1
  O  O63  1  0.98405333  0.79646067  0.68935767  1
  O  O64  1  0.88624533  0.34176267  0.52325267  1
  O  O65  1  0.99870600  0.17356100  0.58146300  1
  O  O66  1  0.49612233  0.65554767  0.59436367  1
  O  O67  1  0.82643900  0.82514500  0.58146300  1
  O  O68  1  0.52783667  0.87152033  0.47505733  1
  O  O69  1  0.17485500  0.00129400  0.58146300  1
  O  O70  1  0.65045867  0.15045033  0.40430033  1
  O  O71  1  0.34368367  0.47216333  0.47505733  1
  O  O72  1  0.65823733  0.54448267  0.52325267  1
  O  O73  1  0.34445233  0.84057467  0.59436367  1
  O  O74  1  0.81868400  0.98794100  0.42155600  1
  O  O75  1  0.45551733  0.11375467  0.52325267  1
  O  O76  1  0.16925700  0.18131600  0.42155600  1
  O  O77  1  0.49999167  0.34954133  0.40430033  1
  O  O78  1  0.01205900  0.83074300  0.42155600  1
  O  O79  1  0.12847967  0.65631633  0.47505733  1
  O  O80  1  0.00278133  0.19844367  0.30990667  1
  O  O81  1  0.84954967  0.50000833  0.40430033  1
  O  O82  1  0.80155633  0.80433767  0.30990667  1
  O  O83  1  0.19566233  0.99721867  0.30990667  1
  O  O84  1  0.47907400  0.34928000  0.02269100  1
  O  O85  1  0.87020600  0.52092600  0.02269100  1
  O  O86  1  0.82609200  0.83721100  0.92769700  1
  O  O87  1  0.65072000  0.12979400  0.02269100  1
  O  O88  1  0.55291200  0.67509600  0.85658600  1
  O  O89  1  0.66537267  0.50689433  0.91479633  1
  O  O90  1  0.16278900  0.98888100  0.92769700  1
  O  O91  1  0.49310567  0.15847833  0.91479633  1
  O  O92  1  0.19450333  0.20485367  0.80839067  1
  O  O93  1  0.84152167  0.33462733  0.91479633  1
  O  O94  1  0.31712533  0.48378367  0.73763367  1
  O  O95  1  0.01035033  0.80549667  0.80839067  1
  O  O96  1  0.32490400  0.87781600  0.85658600  1
  O  O97  1  0.01111900  0.17390800  0.92769700  1
  O  O98  1  0.48535067  0.32127433  0.75488933  1
  O  O99  1  0.12218400  0.44708800  0.85658600  1
  O  O100  1  0.83592367  0.51464933  0.75488933  1
  O  O101  1  0.16665833  0.68287467  0.73763367  1
  O  O102  1  0.67872567  0.16407633  0.75488933  1
  O  O103  1  0.79514633  0.98964967  0.80839067  1
  O  O104  1  0.66944800  0.53177700  0.64324000  1
  O  O105  1  0.51621633  0.83334167  0.73763367  1
  O  O106  1  0.46822300  0.13767100  0.64324000  1
  O  O107  1  0.86232900  0.33055200  0.64324000  1
