# generated using pymatgen
data_Li2FeSi3O8
_symmetry_space_group_name_H-M   'P 1'
_cell_length_a   6.52005418
_cell_length_b   8.31314800
_cell_length_c   6.90578983
_cell_angle_alpha   90.00000000
_cell_angle_beta   108.89559852
_cell_angle_gamma   90.00000000
_symmetry_Int_Tables_number   1
_chemical_formula_structural   Li2FeSi3O8
_chemical_formula_sum   'Li4 Fe2 Si6 O16'
_cell_volume   354.13741794
_cell_formula_units_Z   2
loop_
 _symmetry_equiv_pos_site_id
 _symmetry_equiv_pos_as_xyz
  1  'x, y, z'
loop_
 _atom_site_type_symbol
 _atom_site_label
 _atom_site_symmetry_multiplicity
 _atom_site_fract_x
 _atom_site_fract_y
 _atom_site_fract_z
 _atom_site_occupancy
  Li  Li0  1  0.17018000  0.67709800  0.76159300  1
  Li  Li1  1  0.82982000  0.17709800  0.23840700  1
  Li  Li2  1  0.42941000  0.18373700  0.43626600  1
  Li  Li3  1  0.57059000  0.68373700  0.56373400  1
  Fe  Fe4  1  0.97361400  0.00123150  0.61966400  1
  Fe  Fe5  1  0.02638600  0.50123150  0.38033600  1
  Si  Si6  1  0.59014900  0.47198700  0.95507300  1
  Si  Si7  1  0.40985100  0.97198700  0.04492700  1
  Si  Si8  1  0.76543100  0.82026700  0.93362200  1
  Si  Si9  1  0.23456900  0.32026700  0.06637800  1
  Si  Si10  1  0.82401150  0.34146250  0.68615650  1
  Si  Si11  1  0.17598850  0.84146250  0.31384350  1
  O  O12  1  0.00357450  0.26925900  0.89864750  1
  O  O13  1  0.99642550  0.76925900  0.10135250  1
  O  O14  1  0.66320450  0.96253850  0.04341550  1
  O  O15  1  0.33679550  0.46253850  0.95658450  1
  O  O16  1  0.60245600  0.66307400  0.89757200  1
  O  O17  1  0.39754400  0.16307400  0.10242800  1
  O  O18  1  0.23464950  0.91241750  0.83787750  1
  O  O19  1  0.76535050  0.41241750  0.16212250  1
  O  O20  1  0.59993350  0.37203150  0.74990650  1
  O  O21  1  0.40006650  0.87203150  0.25009350  1
  O  O22  1  0.76836650  0.86197150  0.70818250  1
  O  O23  1  0.23163350  0.36197150  0.29181750  1
  O  O24  1  0.90151800  0.51149200  0.61573800  1
  O  O25  1  0.09848200  0.01149200  0.38426200  1
  O  O26  1  0.76896050  0.19617250  0.51807750  1
  O  O27  1  0.23103950  0.69617250  0.48192250  1
