# generated using pymatgen
data_Li2CrO3
_symmetry_space_group_name_H-M   'P 1'
_cell_length_a   5.60645400
_cell_length_b   9.60334600
_cell_length_c   4.99164800
_cell_angle_alpha   90.00000000
_cell_angle_beta   90.00000000
_cell_angle_gamma   90.00000000
_symmetry_Int_Tables_number   1
_chemical_formula_structural   Li2CrO3
_chemical_formula_sum   'Li8 Cr4 O12'
_cell_volume   268.75391030
_cell_formula_units_Z   4
loop_
 _symmetry_equiv_pos_site_id
 _symmetry_equiv_pos_as_xyz
  1  'x, y, z'
loop_
 _atom_site_type_symbol
 _atom_site_label
 _atom_site_symmetry_multiplicity
 _atom_site_fract_x
 _atom_site_fract_y
 _atom_site_fract_z
 _atom_site_occupancy
  Li  Li0  1  0.16408950  0.82943250  0.47783200  1
  Li  Li1  1  0.83591050  0.82943250  0.97783200  1
  Li  Li2  1  0.16408950  0.17056750  0.47783200  1
  Li  Li3  1  0.83591050  0.17056750  0.97783200  1
  Li  Li4  1  0.66408950  0.32943250  0.47783200  1
  Li  Li5  1  0.33591050  0.32943250  0.97783200  1
  Li  Li6  1  0.66408950  0.67056750  0.47783200  1
  Li  Li7  1  0.33591050  0.67056750  0.97783200  1
  Cr  Cr8  1  0.32266700  0.00000000  0.98216700  1
  Cr  Cr9  1  0.67733300  0.00000000  0.48216700  1
  Cr  Cr10  1  0.82266700  0.50000000  0.98216700  1
  Cr  Cr11  1  0.17733300  0.50000000  0.48216700  1
  O  O12  1  0.17592150  0.84710450  0.07865800  1
  O  O13  1  0.82407850  0.84710450  0.57865800  1
  O  O14  1  0.17592150  0.15289550  0.07865800  1
  O  O15  1  0.82407850  0.15289550  0.57865800  1
  O  O16  1  0.36264750  0.00000000  0.60786800  1
  O  O17  1  0.63735250  0.00000000  0.10786800  1
  O  O18  1  0.67592150  0.34710450  0.07865800  1
  O  O19  1  0.32407850  0.34710450  0.57865800  1
  O  O20  1  0.67592150  0.65289550  0.07865800  1
  O  O21  1  0.32407850  0.65289550  0.57865800  1
  O  O22  1  0.86264750  0.50000000  0.60786800  1
  O  O23  1  0.13735250  0.50000000  0.10786800  1
