# generated using pymatgen
data_Li4Mn3NiO8
_symmetry_space_group_name_H-M   'P 1'
_cell_length_a   10.14719600
_cell_length_b   5.97776800
_cell_length_c   5.99557458
_cell_angle_alpha   90.00000000
_cell_angle_beta   125.87098154
_cell_angle_gamma   90.00000000
_symmetry_Int_Tables_number   1
_chemical_formula_structural   Li4Mn3NiO8
_chemical_formula_sum   'Li8 Mn6 Ni2 O16'
_cell_volume   294.70153345
_cell_formula_units_Z   2
loop_
 _symmetry_equiv_pos_site_id
 _symmetry_equiv_pos_as_xyz
  1  'x, y, z'
loop_
 _atom_site_type_symbol
 _atom_site_label
 _atom_site_symmetry_multiplicity
 _atom_site_fract_x
 _atom_site_fract_y
 _atom_site_fract_z
 _atom_site_occupancy
  Li  Li0  1  0.25000000  0.25000000  0.50000000  1
  Li  Li1  1  0.00000000  0.50000000  0.00000000  1
  Li  Li2  1  0.00000000  0.00000000  0.00000000  1
  Li  Li3  1  0.25000000  0.75000000  0.50000000  1
  Li  Li4  1  0.75000000  0.75000000  0.50000000  1
  Li  Li5  1  0.50000000  0.00000000  0.00000000  1
  Li  Li6  1  0.50000000  0.50000000  0.00000000  1
  Li  Li7  1  0.75000000  0.25000000  0.50000000  1
  Mn  Mn8  1  0.25000000  0.75000000  0.00000000  1
  Mn  Mn9  1  0.50000000  0.00000000  0.50000000  1
  Mn  Mn10  1  0.75000000  0.75000000  0.00000000  1
  Mn  Mn11  1  0.75000000  0.25000000  0.00000000  1
  Mn  Mn12  1  0.00000000  0.50000000  0.50000000  1
  Mn  Mn13  1  0.25000000  0.25000000  0.00000000  1
  Ni  Ni14  1  0.00000000  0.00000000  0.50000000  1
  Ni  Ni15  1  0.50000000  0.50000000  0.50000000  1
  O  O16  1  0.26394200  0.00000000  0.28283300  1
  O  O17  1  0.01078150  0.73339450  0.74094400  1
  O  O18  1  0.25037800  0.50000000  0.21266700  1
  O  O19  1  0.51078150  0.76660550  0.74094400  1
  O  O20  1  0.98921850  0.73339450  0.25905600  1
  O  O21  1  0.24962200  0.00000000  0.78733300  1
  O  O22  1  0.48921850  0.76660550  0.25905600  1
  O  O23  1  0.23605800  0.50000000  0.71716700  1
  O  O24  1  0.76394200  0.50000000  0.28283300  1
  O  O25  1  0.51078150  0.23339450  0.74094400  1
  O  O26  1  0.75037800  0.00000000  0.21266700  1
  O  O27  1  0.01078150  0.26660550  0.74094400  1
  O  O28  1  0.48921850  0.23339450  0.25905600  1
  O  O29  1  0.74962200  0.50000000  0.78733300  1
  O  O30  1  0.98921850  0.26660550  0.25905600  1
  O  O31  1  0.73605800  0.00000000  0.71716700  1
