# generated using pymatgen
data_LiZn(FeO2)4
_symmetry_space_group_name_H-M   'P 1'
_cell_length_a   5.98680442
_cell_length_b   5.98680442
_cell_length_c   14.76249074
_cell_angle_alpha   90.00000000
_cell_angle_beta   90.00000000
_cell_angle_gamma   120.00000000
_symmetry_Int_Tables_number   1
_chemical_formula_structural   LiZn(FeO2)4
_chemical_formula_sum   'Li3 Zn3 Fe12 O24'
_cell_volume   458.22672035
_cell_formula_units_Z   3
loop_
 _symmetry_equiv_pos_site_id
 _symmetry_equiv_pos_as_xyz
  1  'x, y, z'
loop_
 _atom_site_type_symbol
 _atom_site_label
 _atom_site_symmetry_multiplicity
 _atom_site_fract_x
 _atom_site_fract_y
 _atom_site_fract_z
 _atom_site_occupancy
  Li  Li0  1  0.66666667  0.33333333  0.33178233  1
  Li  Li1  1  0.33333333  0.66666667  0.66511567  1
  Li  Li2  1  0.00000000  0.00000000  0.99844900  1
  Zn  Zn3  1  0.33333333  0.66666667  0.03900267  1
  Zn  Zn4  1  0.00000000  0.00000000  0.37233600  1
  Zn  Zn5  1  0.66666667  0.33333333  0.70566933  1
  Fe  Fe6  1  0.66666667  0.33333333  0.08550900  1
  Fe  Fe7  1  0.16278383  0.83721617  0.20961867  1
  Fe  Fe8  1  0.67443233  0.83721617  0.20961867  1
  Fe  Fe9  1  0.16278383  0.32556767  0.20961867  1
  Fe  Fe10  1  0.33333333  0.66666667  0.41884233  1
  Fe  Fe11  1  0.82945050  0.17054950  0.54295200  1
  Fe  Fe12  1  0.34109900  0.17054950  0.54295200  1
  Fe  Fe13  1  0.82945050  0.65890100  0.54295200  1
  Fe  Fe14  1  0.00000000  0.00000000  0.75217567  1
  Fe  Fe15  1  0.49611717  0.50388283  0.87628533  1
  Fe  Fe16  1  0.00776567  0.50388283  0.87628533  1
  Fe  Fe17  1  0.49611717  0.99223433  0.87628533  1
  O  O18  1  0.01615033  0.50807517  0.13093767  1
  O  O19  1  0.49192483  0.98384967  0.13093767  1
  O  O20  1  0.49192483  0.50807517  0.13093767  1
  O  O21  1  0.33333333  0.66666667  0.28747733  1
  O  O22  1  0.84467383  0.15532617  0.28340167  1
  O  O23  1  0.00000000  0.00000000  0.13436300  1
  O  O24  1  0.31065233  0.15532617  0.28340167  1
  O  O25  1  0.84467383  0.68934767  0.28340167  1
  O  O26  1  0.68281700  0.84140850  0.46427100  1
  O  O27  1  0.15859150  0.31718300  0.46427100  1
  O  O28  1  0.15859150  0.84140850  0.46427100  1
  O  O29  1  0.00000000  0.00000000  0.62081067  1
  O  O30  1  0.51134050  0.48865950  0.61673500  1
  O  O31  1  0.66666667  0.33333333  0.46769633  1
  O  O32  1  0.97731900  0.48865950  0.61673500  1
  O  O33  1  0.51134050  0.02268100  0.61673500  1
  O  O34  1  0.34948367  0.17474183  0.79760433  1
  O  O35  1  0.82525817  0.65051633  0.79760433  1
  O  O36  1  0.82525817  0.17474183  0.79760433  1
  O  O37  1  0.66666667  0.33333333  0.95414400  1
  O  O38  1  0.17800717  0.82199283  0.95006833  1
  O  O39  1  0.33333333  0.66666667  0.80102967  1
  O  O40  1  0.64398567  0.82199283  0.95006833  1
  O  O41  1  0.17800717  0.35601433  0.95006833  1
