# generated using pymatgen
data_Li2Cu2S3
_symmetry_space_group_name_H-M   'P 1'
_cell_length_a   13.53543400
_cell_length_b   12.01305400
_cell_length_c   6.47272186
_cell_angle_alpha   90.00000000
_cell_angle_beta   117.50777085
_cell_angle_gamma   90.00000000
_symmetry_Int_Tables_number   1
_chemical_formula_structural   Li2Cu2S3
_chemical_formula_sum   'Li16 Cu16 S24'
_cell_volume   933.49246469
_cell_formula_units_Z   8
loop_
 _symmetry_equiv_pos_site_id
 _symmetry_equiv_pos_as_xyz
  1  'x, y, z'
loop_
 _atom_site_type_symbol
 _atom_site_label
 _atom_site_symmetry_multiplicity
 _atom_site_fract_x
 _atom_site_fract_y
 _atom_site_fract_z
 _atom_site_occupancy
  Li  Li0  1  0.39257700  0.58260800  0.93898400  1
  Li  Li1  1  0.39257700  0.41739200  0.43898400  1
  Li  Li2  1  0.00000000  0.72460600  0.75000000  1
  Li  Li3  1  0.00000000  0.42884800  0.75000000  1
  Li  Li4  1  0.00000000  0.57115200  0.25000000  1
  Li  Li5  1  0.00000000  0.27539400  0.25000000  1
  Li  Li6  1  0.60742300  0.58260800  0.56101600  1
  Li  Li7  1  0.60742300  0.41739200  0.06101600  1
  Li  Li8  1  0.89257700  0.08260800  0.93898400  1
  Li  Li9  1  0.89257700  0.91739200  0.43898400  1
  Li  Li10  1  0.50000000  0.22460600  0.75000000  1
  Li  Li11  1  0.50000000  0.92884800  0.75000000  1
  Li  Li12  1  0.50000000  0.07115200  0.25000000  1
  Li  Li13  1  0.50000000  0.77539400  0.25000000  1
  Li  Li14  1  0.10742300  0.08260800  0.56101600  1
  Li  Li15  1  0.10742300  0.91739200  0.06101600  1
  Cu  Cu16  1  0.20649950  0.42324550  0.61341500  1
  Cu  Cu17  1  0.18103700  0.74019300  0.59924200  1
  Cu  Cu18  1  0.20649950  0.57675450  0.11341500  1
  Cu  Cu19  1  0.18103700  0.25980700  0.09924200  1
  Cu  Cu20  1  0.81896300  0.74019300  0.90075800  1
  Cu  Cu21  1  0.79350050  0.42324550  0.88658500  1
  Cu  Cu22  1  0.81896300  0.25980700  0.40075800  1
  Cu  Cu23  1  0.79350050  0.57675450  0.38658500  1
  Cu  Cu24  1  0.70649950  0.92324550  0.61341500  1
  Cu  Cu25  1  0.68103700  0.24019300  0.59924200  1
  Cu  Cu26  1  0.70649950  0.07675450  0.11341500  1
  Cu  Cu27  1  0.68103700  0.75980700  0.09924200  1
  Cu  Cu28  1  0.31896300  0.24019300  0.90075800  1
  Cu  Cu29  1  0.29350050  0.92324550  0.88658500  1
  Cu  Cu30  1  0.31896300  0.75980700  0.40075800  1
  Cu  Cu31  1  0.29350050  0.07675450  0.38658500  1
  S  S32  1  0.14142000  0.57547300  0.72230000  1
  S  S33  1  0.12933550  0.27638150  0.71255200  1
  S  S34  1  0.14142000  0.42452700  0.22230000  1
  S  S35  1  0.12933550  0.72361850  0.21255200  1
  S  S36  1  0.89338450  0.89060750  0.81599500  1
  S  S37  1  0.10661550  0.10939250  0.18400500  1
  S  S38  1  0.87066450  0.27638150  0.78744800  1
  S  S39  1  0.85858000  0.57547300  0.77770000  1
  S  S40  1  0.89338450  0.10939250  0.31599500  1
  S  S41  1  0.87066450  0.72361850  0.28744800  1
  S  S42  1  0.85858000  0.42452700  0.27770000  1
  S  S43  1  0.10661550  0.89060750  0.68400500  1
  S  S44  1  0.64142000  0.07547300  0.72230000  1
  S  S45  1  0.62933550  0.77638150  0.71255200  1
  S  S46  1  0.64142000  0.92452700  0.22230000  1
  S  S47  1  0.62933550  0.22361850  0.21255200  1
  S  S48  1  0.39338450  0.39060750  0.81599500  1
  S  S49  1  0.60661550  0.60939250  0.18400500  1
  S  S50  1  0.37066450  0.77638150  0.78744800  1
  S  S51  1  0.35858000  0.07547300  0.77770000  1
  S  S52  1  0.39338450  0.60939250  0.31599500  1
  S  S53  1  0.37066450  0.22361850  0.28744800  1
  S  S54  1  0.35858000  0.92452700  0.27770000  1
  S  S55  1  0.60661550  0.39060750  0.68400500  1
