# generated using pymatgen
data_Ba3La2Ti3Cr2O15
_symmetry_space_group_name_H-M   'P 1'
_cell_length_a   5.67513002
_cell_length_b   28.08107507
_cell_length_c   3.99261200
_cell_angle_alpha   90.00000000
_cell_angle_beta   90.00000000
_cell_angle_gamma   90.00000000
_symmetry_Int_Tables_number   1
_chemical_formula_structural   Ba3La2Ti3Cr2O15
_chemical_formula_sum   'Ba6 La4 Ti6 Cr4 O30'
_cell_volume   636.27762865
_cell_formula_units_Z   2
loop_
 _symmetry_equiv_pos_site_id
 _symmetry_equiv_pos_as_xyz
  1  'x, y, z'
loop_
 _atom_site_type_symbol
 _atom_site_label
 _atom_site_symmetry_multiplicity
 _atom_site_fract_x
 _atom_site_fract_y
 _atom_site_fract_z
 _atom_site_occupancy
  Ba  Ba0  1  0.50000000  0.50000000  0.00000000  1
  Ba  Ba1  1  0.50000000  0.89822225  0.00000000  1
  Ba  Ba2  1  0.00000000  0.60177775  0.00000000  1
  Ba  Ba3  1  0.00000000  0.00000000  0.00000000  1
  Ba  Ba4  1  0.00000000  0.39822225  0.00000000  1
  Ba  Ba5  1  0.50000000  0.10177775  0.00000000  1
  La  La6  1  0.50000000  0.70316475  0.00000000  1
  La  La7  1  0.00000000  0.79683525  0.00000000  1
  La  La8  1  0.00000000  0.20316475  0.00000000  1
  La  La9  1  0.50000000  0.29683525  0.00000000  1
  Ti  Ti10  1  0.00000000  0.50000000  0.50000000  1
  Ti  Ti11  1  0.00000000  0.89740250  0.50000000  1
  Ti  Ti12  1  0.50000000  0.60259750  0.50000000  1
  Ti  Ti13  1  0.50000000  0.00000000  0.50000000  1
  Ti  Ti14  1  0.50000000  0.39740250  0.50000000  1
  Ti  Ti15  1  0.00000000  0.10259750  0.50000000  1
  Cr  Cr16  1  0.00000000  0.70092875  0.50000000  1
  Cr  Cr17  1  0.50000000  0.79907125  0.50000000  1
  Cr  Cr18  1  0.50000000  0.20092875  0.50000000  1
  Cr  Cr19  1  0.00000000  0.29907125  0.50000000  1
  O  O20  1  0.00000000  0.50000000  0.00000000  1
  O  O21  1  0.50000000  0.79424050  0.00000000  1
  O  O22  1  0.00000000  0.70575950  0.00000000  1
  O  O23  1  0.25000000  0.75000000  0.50000000  1
  O  O24  1  0.75000000  0.75000000  0.50000000  1
  O  O25  1  0.00000000  0.89594925  0.00000000  1
  O  O26  1  0.50000000  0.60405075  0.00000000  1
  O  O27  1  0.75082825  0.44895700  0.50000000  1
  O  O28  1  0.24917175  0.55104300  0.50000000  1
  O  O29  1  0.75082825  0.55104300  0.50000000  1
  O  O30  1  0.24917175  0.44895700  0.50000000  1
  O  O31  1  0.73537750  0.65305825  0.50000000  1
  O  O32  1  0.76462250  0.84694175  0.50000000  1
  O  O33  1  0.26462250  0.65305825  0.50000000  1
  O  O34  1  0.23537750  0.84694175  0.50000000  1
  O  O35  1  0.50000000  0.00000000  0.00000000  1
  O  O36  1  0.00000000  0.29424050  0.00000000  1
  O  O37  1  0.50000000  0.20575950  0.00000000  1
  O  O38  1  0.75000000  0.25000000  0.50000000  1
  O  O39  1  0.25000000  0.25000000  0.50000000  1
  O  O40  1  0.50000000  0.39594925  0.00000000  1
  O  O41  1  0.00000000  0.10405075  0.00000000  1
  O  O42  1  0.25082825  0.94895700  0.50000000  1
  O  O43  1  0.74917175  0.05104300  0.50000000  1
  O  O44  1  0.25082825  0.05104300  0.50000000  1
  O  O45  1  0.74917175  0.94895700  0.50000000  1
  O  O46  1  0.23537750  0.15305825  0.50000000  1
  O  O47  1  0.26462250  0.34694175  0.50000000  1
  O  O48  1  0.76462250  0.15305825  0.50000000  1
  O  O49  1  0.73537750  0.34694175  0.50000000  1
