# generated using pymatgen
data_Mn5FeO12
_symmetry_space_group_name_H-M   'P 1'
_cell_length_a   8.28557600
_cell_length_b   8.29151400
_cell_length_c   13.07208388
_cell_angle_alpha   90.00000000
_cell_angle_beta   107.75581864
_cell_angle_gamma   90.00000000
_symmetry_Int_Tables_number   1
_chemical_formula_structural   Mn5FeO12
_chemical_formula_sum   'Mn20 Fe4 O48'
_cell_volume   855.27291817
_cell_formula_units_Z   4
loop_
 _symmetry_equiv_pos_site_id
 _symmetry_equiv_pos_as_xyz
  1  'x, y, z'
loop_
 _atom_site_type_symbol
 _atom_site_label
 _atom_site_symmetry_multiplicity
 _atom_site_fract_x
 _atom_site_fract_y
 _atom_site_fract_z
 _atom_site_occupancy
  Mn  Mn0  1  0.75000000  0.25000000  0.00000000  1
  Mn  Mn1  1  0.16599650  0.99981650  0.83296200  1
  Mn  Mn2  1  0.41609250  0.74982450  0.83285800  1
  Mn  Mn3  1  0.58390750  0.74982450  0.66714200  1
  Mn  Mn4  1  0.83400350  0.99981650  0.66703800  1
  Mn  Mn5  1  0.75000000  0.75000000  0.50000000  1
  Mn  Mn6  1  0.41609250  0.25017550  0.33285800  1
  Mn  Mn7  1  0.16599650  0.00018350  0.33296200  1
  Mn  Mn8  1  0.83400350  0.00018350  0.16703800  1
  Mn  Mn9  1  0.58390750  0.25017550  0.16714200  1
  Mn  Mn10  1  0.25000000  0.75000000  0.00000000  1
  Mn  Mn11  1  0.66599650  0.49981650  0.83296200  1
  Mn  Mn12  1  0.91609250  0.24982450  0.83285800  1
  Mn  Mn13  1  0.08390750  0.24982450  0.66714200  1
  Mn  Mn14  1  0.33400350  0.49981650  0.66703800  1
  Mn  Mn15  1  0.25000000  0.25000000  0.50000000  1
  Mn  Mn16  1  0.91609250  0.75017550  0.33285800  1
  Mn  Mn17  1  0.66599650  0.50018350  0.33296200  1
  Mn  Mn18  1  0.33400350  0.50018350  0.16703800  1
  Mn  Mn19  1  0.08390750  0.75017550  0.16714200  1
  Fe  Fe20  1  0.50000000  0.00000000  0.00000000  1
  Fe  Fe21  1  0.50000000  0.00000000  0.50000000  1
  Fe  Fe22  1  0.00000000  0.50000000  0.00000000  1
  Fe  Fe23  1  0.00000000  0.50000000  0.50000000  1
  O  O24  1  0.25344750  0.98258450  0.98840100  1
  O  O25  1  0.47706100  0.76115200  0.98858800  1
  O  O26  1  0.40326250  0.98309650  0.84014500  1
  O  O27  1  0.68798550  0.26573150  0.84387200  1
  O  O28  1  0.64528900  0.73446100  0.82254000  1
  O  O29  1  0.92702850  0.01624050  0.82279200  1
  O  O30  1  0.07297150  0.01624050  0.67720800  1
  O  O31  1  0.35471100  0.73446100  0.67746000  1
  O  O32  1  0.59673750  0.98309650  0.65985500  1
  O  O33  1  0.31201450  0.26573150  0.65612800  1
  O  O34  1  0.74655250  0.98258450  0.51159900  1
  O  O35  1  0.52293900  0.76115200  0.51141200  1
  O  O36  1  0.47706100  0.23884800  0.48858800  1
  O  O37  1  0.25344750  0.01741550  0.48840100  1
  O  O38  1  0.68798550  0.73426850  0.34387200  1
  O  O39  1  0.40326250  0.01690350  0.34014500  1
  O  O40  1  0.92702850  0.98375950  0.32279200  1
  O  O41  1  0.64528900  0.26553900  0.32254000  1
  O  O42  1  0.07297150  0.98375950  0.17720800  1
  O  O43  1  0.35471100  0.26553900  0.17746000  1
  O  O44  1  0.59673750  0.01690350  0.15985500  1
  O  O45  1  0.31201450  0.73426850  0.15612800  1
  O  O46  1  0.74655250  0.01741550  0.01159900  1
  O  O47  1  0.52293900  0.23884800  0.01141200  1
  O  O48  1  0.75344750  0.48258450  0.98840100  1
  O  O49  1  0.97706100  0.26115200  0.98858800  1
  O  O50  1  0.90326250  0.48309650  0.84014500  1
  O  O51  1  0.18798550  0.76573150  0.84387200  1
  O  O52  1  0.14528900  0.23446100  0.82254000  1
  O  O53  1  0.42702850  0.51624050  0.82279200  1
  O  O54  1  0.57297150  0.51624050  0.67720800  1
  O  O55  1  0.85471100  0.23446100  0.67746000  1
  O  O56  1  0.09673750  0.48309650  0.65985500  1
  O  O57  1  0.81201450  0.76573150  0.65612800  1
  O  O58  1  0.24655250  0.48258450  0.51159900  1
  O  O59  1  0.02293900  0.26115200  0.51141200  1
  O  O60  1  0.97706100  0.73884800  0.48858800  1
  O  O61  1  0.75344750  0.51741550  0.48840100  1
  O  O62  1  0.18798550  0.23426850  0.34387200  1
  O  O63  1  0.90326250  0.51690350  0.34014500  1
  O  O64  1  0.42702850  0.48375950  0.32279200  1
  O  O65  1  0.14528900  0.76553900  0.32254000  1
  O  O66  1  0.57297150  0.48375950  0.17720800  1
  O  O67  1  0.85471100  0.76553900  0.17746000  1
  O  O68  1  0.09673750  0.51690350  0.15985500  1
  O  O69  1  0.81201450  0.23426850  0.15612800  1
  O  O70  1  0.24655250  0.51741550  0.01159900  1
  O  O71  1  0.02293900  0.73884800  0.01141200  1
