# generated using pymatgen
data_Li2Mn(PO4)2
_symmetry_space_group_name_H-M   'P 1'
_cell_length_a   9.39304918
_cell_length_b   8.04408300
_cell_length_c   9.13806429
_cell_angle_alpha   90.00000000
_cell_angle_beta   118.51723189
_cell_angle_gamma   90.00000000
_symmetry_Int_Tables_number   1
_chemical_formula_structural   Li2Mn(PO4)2
_chemical_formula_sum   'Li8 Mn4 P8 O32'
_cell_volume   606.68730819
_cell_formula_units_Z   4
loop_
 _symmetry_equiv_pos_site_id
 _symmetry_equiv_pos_as_xyz
  1  'x, y, z'
loop_
 _atom_site_type_symbol
 _atom_site_label
 _atom_site_symmetry_multiplicity
 _atom_site_fract_x
 _atom_site_fract_y
 _atom_site_fract_z
 _atom_site_occupancy
  Li  Li0  1  0.11475300  0.71893000  0.50932300  1
  Li  Li1  1  0.38524700  0.21893000  0.99067700  1
  Li  Li2  1  0.61475300  0.78107000  0.00932300  1
  Li  Li3  1  0.88524700  0.28107000  0.49067700  1
  Li  Li4  1  0.61475300  0.21893000  0.50932300  1
  Li  Li5  1  0.88524700  0.71893000  0.99067700  1
  Li  Li6  1  0.11475300  0.28107000  0.00932300  1
  Li  Li7  1  0.38524700  0.78107000  0.49067700  1
  Mn  Mn8  1  0.50000000  0.65442600  0.25000000  1
  Mn  Mn9  1  0.50000000  0.34557400  0.75000000  1
  Mn  Mn10  1  0.00000000  0.15442600  0.25000000  1
  Mn  Mn11  1  0.00000000  0.84557400  0.75000000  1
  P  P12  1  0.72232900  0.44254700  0.14291300  1
  P  P13  1  0.72232900  0.55745300  0.64291300  1
  P  P14  1  0.27767100  0.44254700  0.35708700  1
  P  P15  1  0.27767100  0.55745300  0.85708700  1
  P  P16  1  0.22232900  0.94254700  0.14291300  1
  P  P17  1  0.22232900  0.05745300  0.64291300  1
  P  P18  1  0.77767100  0.94254700  0.35708700  1
  P  P19  1  0.77767100  0.05745300  0.85708700  1
  O  O20  1  0.63623850  0.82787850  0.23553500  1
  O  O21  1  0.90257200  0.83267200  0.50657200  1
  O  O22  1  0.13623850  0.67212150  0.73553500  1
  O  O23  1  0.85942750  0.98282350  0.24644600  1
  O  O24  1  0.40257200  0.66732800  0.00657200  1
  O  O25  1  0.77865500  0.59556500  0.09035300  1
  O  O26  1  0.35942750  0.51717650  0.74644600  1
  O  O27  1  0.77865500  0.40443500  0.59035300  1
  O  O28  1  0.22134500  0.59556500  0.40964700  1
  O  O29  1  0.64057250  0.48282350  0.25355400  1
  O  O30  1  0.22134500  0.40443500  0.90964700  1
  O  O31  1  0.59742800  0.33267200  0.99342800  1
  O  O32  1  0.14057250  0.01717650  0.75355400  1
  O  O33  1  0.86376150  0.32787850  0.26446500  1
  O  O34  1  0.09742800  0.16732800  0.49342800  1
  O  O35  1  0.36376150  0.17212150  0.76446500  1
  O  O36  1  0.13623850  0.32787850  0.23553500  1
  O  O37  1  0.40257200  0.33267200  0.50657200  1
  O  O38  1  0.63623850  0.17212150  0.73553500  1
  O  O39  1  0.35942750  0.48282350  0.24644600  1
  O  O40  1  0.90257200  0.16732800  0.00657200  1
  O  O41  1  0.27865500  0.09556500  0.09035300  1
  O  O42  1  0.85942750  0.01717650  0.74644600  1
  O  O43  1  0.27865500  0.90443500  0.59035300  1
  O  O44  1  0.72134500  0.09556500  0.40964700  1
  O  O45  1  0.14057250  0.98282350  0.25355400  1
  O  O46  1  0.72134500  0.90443500  0.90964700  1
  O  O47  1  0.09742800  0.83267200  0.99342800  1
  O  O48  1  0.64057250  0.51717650  0.75355400  1
  O  O49  1  0.36376150  0.82787850  0.26446500  1
  O  O50  1  0.59742800  0.66732800  0.49342800  1
  O  O51  1  0.86376150  0.67212150  0.76446500  1
