# generated using pymatgen
data_LiVFeP2(HO5)2
_symmetry_space_group_name_H-M   'P 1'
_cell_length_a   5.25959205
_cell_length_b   5.31829286
_cell_length_c   7.42928988
_cell_angle_alpha   105.87490065
_cell_angle_beta   109.63367147
_cell_angle_gamma   98.29237458
_symmetry_Int_Tables_number   1
_chemical_formula_structural   LiVFeP2(HO5)2
_chemical_formula_sum   'Li1 V1 Fe1 P2 H2 O10'
_cell_volume   181.75757974
_cell_formula_units_Z   1
loop_
 _symmetry_equiv_pos_site_id
 _symmetry_equiv_pos_as_xyz
  1  'x, y, z'
loop_
 _atom_site_type_symbol
 _atom_site_label
 _atom_site_symmetry_multiplicity
 _atom_site_fract_x
 _atom_site_fract_y
 _atom_site_fract_z
 _atom_site_occupancy
  Li  Li0  1  0.20668600  0.57970150  0.14318100  1
  V  V1  1  0.00147000  0.00273150  0.50541200  1
  Fe  Fe2  1  0.99705600  0.99142350  0.99603300  1
  P  P3  1  0.67931050  0.34887250  0.23073350  1
  P  P4  1  0.33003450  0.65041450  0.77341050  1
  H  H5  1  0.34903600  0.04822400  0.34487300  1
  H  H6  1  0.65565750  0.99383950  0.66739250  1
  O  O7  1  0.86183900  0.03940500  0.71930800  1
  O  O8  1  0.71498700  0.17690350  0.37345500  1
  O  O9  1  0.26442600  0.34749750  0.63906800  1
  O  O10  1  0.36961100  0.25976200  0.08163400  1
  O  O11  1  0.88426500  0.32089450  0.12416300  1
  O  O12  1  0.14255300  0.67778350  0.89480000  1
  O  O13  1  0.63707750  0.74439700  0.92015250  1
  O  O14  1  0.72848000  0.65349100  0.35300500  1
  O  O15  1  0.27946050  0.82226600  0.63013350  1
  O  O16  1  0.14982300  0.94426000  0.28070600  1
