# generated using pymatgen
data_NaLi5Mn2P2(CO7)2
_symmetry_space_group_name_H-M   'P 1'
_cell_length_a   8.64053100
_cell_length_b   6.67553200
_cell_length_c   9.98658713
_cell_angle_alpha   90.00000000
_cell_angle_beta   92.41246165
_cell_angle_gamma   90.00000000
_symmetry_Int_Tables_number   1
_chemical_formula_structural   NaLi5Mn2P2(CO7)2
_chemical_formula_sum   'Na2 Li10 Mn4 P4 C4 O28'
_cell_volume   575.51722121
_cell_formula_units_Z   2
loop_
 _symmetry_equiv_pos_site_id
 _symmetry_equiv_pos_as_xyz
  1  'x, y, z'
loop_
 _atom_site_type_symbol
 _atom_site_label
 _atom_site_symmetry_multiplicity
 _atom_site_fract_x
 _atom_site_fract_y
 _atom_site_fract_z
 _atom_site_occupancy
  Na  Na0  1  0.75188700  0.00083200  0.62594500  1
  Na  Na1  1  0.24811300  0.50083200  0.37405500  1
  Li  Li2  1  0.91323500  0.73914600  0.87364700  1
  Li  Li3  1  0.91341000  0.75630500  0.37116400  1
  Li  Li4  1  0.73088600  0.52552300  0.61371300  1
  Li  Li5  1  0.73393000  0.97507600  0.11784300  1
  Li  Li6  1  0.73441000  0.52611400  0.11717300  1
  Li  Li7  1  0.26607000  0.47507600  0.88215700  1
  Li  Li8  1  0.26559000  0.02611400  0.88282700  1
  Li  Li9  1  0.26911400  0.02552300  0.38628700  1
  Li  Li10  1  0.08659000  0.25630500  0.62883600  1
  Li  Li11  1  0.08676500  0.23914600  0.12635300  1
  Mn  Mn12  1  0.64954000  0.25046100  0.89034800  1
  Mn  Mn13  1  0.64552700  0.25532200  0.38528000  1
  Mn  Mn14  1  0.35447300  0.75532200  0.61472000  1
  Mn  Mn15  1  0.35046000  0.75046100  0.10965200  1
  P  P16  1  0.59216200  0.74468000  0.85708600  1
  P  P17  1  0.59410500  0.75616300  0.35289500  1
  P  P18  1  0.40589500  0.25616300  0.64710500  1
  P  P19  1  0.40783800  0.24468000  0.14291400  1
  C  C20  1  0.96136700  0.25089500  0.86541300  1
  C  C21  1  0.95623500  0.24098600  0.36096300  1
  C  C22  1  0.04376500  0.74098600  0.63903700  1
  C  C23  1  0.03863300  0.75089500  0.13458700  1
  O  O24  1  0.90061000  0.71785400  0.67139400  1
  O  O25  1  0.89283600  0.75253000  0.16336800  1
  O  O26  1  0.91868600  0.24779100  0.98788000  1
  O  O27  1  0.91852200  0.24561600  0.48520500  1
  O  O28  1  0.85729600  0.25260500  0.76710100  1
  O  O29  1  0.85035500  0.26065800  0.26483100  1
  O  O30  1  0.68805700  0.93223100  0.90241600  1
  O  O31  1  0.68857600  0.56551500  0.91503400  1
  O  O32  1  0.69605700  0.93870000  0.39498300  1
  O  O33  1  0.68631400  0.57153100  0.40772600  1
  O  O34  1  0.58191900  0.73233400  0.70088200  1
  O  O35  1  0.57232000  0.26753200  0.59442800  1
  O  O36  1  0.57991700  0.74603700  0.19593800  1
  O  O37  1  0.57712800  0.24756600  0.09565100  1
  O  O38  1  0.42287200  0.74756600  0.90434900  1
  O  O39  1  0.42008300  0.24603700  0.80406200  1
  O  O40  1  0.42768000  0.76753200  0.40557200  1
  O  O41  1  0.41808100  0.23233400  0.29911800  1
  O  O42  1  0.30394300  0.43870000  0.60501700  1
  O  O43  1  0.31368600  0.07153100  0.59227400  1
  O  O44  1  0.31194300  0.43223100  0.09758400  1
  O  O45  1  0.31142400  0.06551500  0.08496600  1
  O  O46  1  0.14964500  0.76065800  0.73516900  1
  O  O47  1  0.14270400  0.75260500  0.23289900  1
  O  O48  1  0.08147800  0.74561600  0.51479500  1
  O  O49  1  0.08131400  0.74779100  0.01212000  1
  O  O50  1  0.10716400  0.25253000  0.83663200  1
  O  O51  1  0.09939000  0.21785400  0.32860600  1
