# generated using pymatgen
data_Mn3Fe(PO4)4
_symmetry_space_group_name_H-M   'P 1'
_cell_length_a   19.68482200
_cell_length_b   12.02433400
_cell_length_c   4.92890101
_cell_angle_alpha   90.00000000
_cell_angle_beta   90.00297586
_cell_angle_gamma   90.00000000
_symmetry_Int_Tables_number   1
_chemical_formula_structural   Mn3Fe(PO4)4
_chemical_formula_sum   'Mn12 Fe4 P16 O64'
_cell_volume   1166.65546122
_cell_formula_units_Z   4
loop_
 _symmetry_equiv_pos_site_id
 _symmetry_equiv_pos_as_xyz
  1  'x, y, z'
loop_
 _atom_site_type_symbol
 _atom_site_label
 _atom_site_symmetry_multiplicity
 _atom_site_fract_x
 _atom_site_fract_y
 _atom_site_fract_z
 _atom_site_occupancy
  Mn  Mn0  1  0.73323200  0.74970200  0.93076600  1
  Mn  Mn1  1  0.73323200  0.25029800  0.93076600  1
  Mn  Mn2  1  0.48330300  0.25124400  0.56880000  1
  Mn  Mn3  1  0.48330300  0.74875600  0.56880000  1
  Mn  Mn4  1  0.26769400  0.00000000  0.42889400  1
  Mn  Mn5  1  0.01831400  0.00000000  0.07379400  1
  Mn  Mn6  1  0.23323200  0.24970200  0.93076600  1
  Mn  Mn7  1  0.23323200  0.75029800  0.93076600  1
  Mn  Mn8  1  0.98330300  0.75124400  0.56880000  1
  Mn  Mn9  1  0.98330300  0.24875600  0.56880000  1
  Mn  Mn10  1  0.76769400  0.50000000  0.42889400  1
  Mn  Mn11  1  0.51831400  0.50000000  0.07379400  1
  Fe  Fe12  1  0.76305400  0.00000000  0.45782700  1
  Fe  Fe13  1  0.51246600  0.00000000  0.04028000  1
  Fe  Fe14  1  0.26305400  0.50000000  0.45782700  1
  Fe  Fe15  1  0.01246600  0.50000000  0.04028000  1
  P  P16  1  0.17491100  0.00000000  0.91558500  1
  P  P17  1  0.67352100  0.00000000  0.91186500  1
  P  P18  1  0.42302100  0.00000000  0.58596000  1
  P  P19  1  0.92536700  0.00000000  0.58699100  1
  P  P20  1  0.32528950  0.74823850  0.41684500  1
  P  P21  1  0.32528950  0.25176150  0.41684500  1
  P  P22  1  0.57530500  0.75235600  0.08294900  1
  P  P23  1  0.57530500  0.24764400  0.08294900  1
  P  P24  1  0.67491100  0.50000000  0.91558500  1
  P  P25  1  0.17352100  0.50000000  0.91186500  1
  P  P26  1  0.92302100  0.50000000  0.58596000  1
  P  P27  1  0.42536700  0.50000000  0.58699100  1
  P  P28  1  0.82528950  0.24823850  0.41684500  1
  P  P29  1  0.82528950  0.75176150  0.41684500  1
  P  P30  1  0.07530500  0.25235600  0.08294900  1
  P  P31  1  0.07530500  0.74764400  0.08294900  1
  O  O32  1  0.09824300  0.00000000  0.85570000  1
  O  O33  1  0.59792100  0.00000000  0.84331500  1
  O  O34  1  0.71116100  0.90106800  0.76407000  1
  O  O35  1  0.21049500  0.89975600  0.77259900  1
  O  O36  1  0.21049500  0.10024400  0.77259900  1
  O  O37  1  0.71116100  0.09893200  0.76407000  1
  O  O38  1  0.56576600  0.75085200  0.77210200  1
  O  O39  1  0.56576600  0.24914800  0.77210200  1
  O  O40  1  0.31570900  0.25025200  0.72774000  1
  O  O41  1  0.31570900  0.74974800  0.72774000  1
  O  O42  1  0.45981600  0.90106400  0.73516600  1
  O  O43  1  0.45981600  0.09893600  0.73516600  1
  O  O44  1  0.46179250  0.39976650  0.72847200  1
  O  O45  1  0.46179250  0.60023350  0.72847200  1
  O  O46  1  0.84937100  0.00000000  0.64814600  1
  O  O47  1  0.34677500  0.00000000  0.65303700  1
  O  O48  1  0.40215150  0.75054150  0.35752600  1
  O  O49  1  0.40215150  0.24945850  0.35752600  1
  O  O50  1  0.28913900  0.15157400  0.27456400  1
  O  O51  1  0.79030900  0.14693100  0.27766800  1
  O  O52  1  0.79030900  0.85306900  0.27766800  1
  O  O53  1  0.28913900  0.84842600  0.27456400  1
  O  O54  1  0.93578500  0.00000000  0.27684000  1
  O  O55  1  0.43382700  0.00000000  0.28052400  1
  O  O56  1  0.18497600  0.00000000  0.22549300  1
  O  O57  1  0.68491800  0.00000000  0.21721100  1
  O  O58  1  0.53968700  0.14651800  0.22153700  1
  O  O59  1  0.53966850  0.65197450  0.22594600  1
  O  O60  1  0.53968700  0.85348200  0.22153700  1
  O  O61  1  0.53966850  0.34802550  0.22594600  1
  O  O62  1  0.65214700  0.75259000  0.14250400  1
  O  O63  1  0.65214700  0.24741000  0.14250400  1
  O  O64  1  0.59824300  0.50000000  0.85570000  1
  O  O65  1  0.09792100  0.50000000  0.84331500  1
  O  O66  1  0.21116100  0.40106800  0.76407000  1
  O  O67  1  0.71049500  0.39975600  0.77259900  1
  O  O68  1  0.71049500  0.60024400  0.77259900  1
  O  O69  1  0.21116100  0.59893200  0.76407000  1
  O  O70  1  0.06576600  0.25085200  0.77210200  1
  O  O71  1  0.06576600  0.74914800  0.77210200  1
  O  O72  1  0.81570900  0.75025200  0.72774000  1
  O  O73  1  0.81570900  0.24974800  0.72774000  1
  O  O74  1  0.95981600  0.40106400  0.73516600  1
  O  O75  1  0.95981600  0.59893600  0.73516600  1
  O  O76  1  0.96179250  0.89976650  0.72847200  1
  O  O77  1  0.96179250  0.10023350  0.72847200  1
  O  O78  1  0.34937100  0.50000000  0.64814600  1
  O  O79  1  0.84677500  0.50000000  0.65303700  1
  O  O80  1  0.90215150  0.25054150  0.35752600  1
  O  O81  1  0.90215150  0.74945850  0.35752600  1
  O  O82  1  0.78913900  0.65157400  0.27456400  1
  O  O83  1  0.29030900  0.64693100  0.27766800  1
  O  O84  1  0.29030900  0.35306900  0.27766800  1
  O  O85  1  0.78913900  0.34842600  0.27456400  1
  O  O86  1  0.43578500  0.50000000  0.27684000  1
  O  O87  1  0.93382700  0.50000000  0.28052400  1
  O  O88  1  0.68497600  0.50000000  0.22549300  1
  O  O89  1  0.18491800  0.50000000  0.21721100  1
  O  O90  1  0.03968700  0.64651800  0.22153700  1
  O  O91  1  0.03966850  0.15197450  0.22594600  1
  O  O92  1  0.03968700  0.35348200  0.22153700  1
  O  O93  1  0.03966850  0.84802550  0.22594600  1
  O  O94  1  0.15214700  0.25259000  0.14250400  1
  O  O95  1  0.15214700  0.74741000  0.14250400  1
