# generated using pymatgen
data_Li2TiNi2O5
_symmetry_space_group_name_H-M   'P 1'
_cell_length_a   5.03235575
_cell_length_b   14.85284316
_cell_length_c   5.07822099
_cell_angle_alpha   90.00000000
_cell_angle_beta   108.63532662
_cell_angle_gamma   90.00000000
_symmetry_Int_Tables_number   1
_chemical_formula_structural   Li2TiNi2O5
_chemical_formula_sum   'Li8 Ti4 Ni8 O20'
_cell_volume   359.67027635
_cell_formula_units_Z   4
loop_
 _symmetry_equiv_pos_site_id
 _symmetry_equiv_pos_as_xyz
  1  'x, y, z'
loop_
 _atom_site_type_symbol
 _atom_site_label
 _atom_site_symmetry_multiplicity
 _atom_site_fract_x
 _atom_site_fract_y
 _atom_site_fract_z
 _atom_site_occupancy
  Li  Li0  1  0.50000000  0.05265750  0.75000000  1
  Li  Li1  1  0.50000000  0.94734250  0.25000000  1
  Li  Li2  1  0.00000000  0.74907100  0.75000000  1
  Li  Li3  1  0.50000000  0.75092900  0.25000000  1
  Li  Li4  1  0.00000000  0.55265750  0.75000000  1
  Li  Li5  1  0.00000000  0.44734250  0.25000000  1
  Li  Li6  1  0.50000000  0.24907100  0.75000000  1
  Li  Li7  1  0.00000000  0.25092900  0.25000000  1
  Ti  Ti8  1  0.50000000  0.85365600  0.75000000  1
  Ti  Ti9  1  0.50000000  0.14634400  0.25000000  1
  Ti  Ti10  1  0.00000000  0.35365600  0.75000000  1
  Ti  Ti11  1  0.00000000  0.64634400  0.25000000  1
  Ni  Ni12  1  0.00000000  0.04869050  0.25000000  1
  Ni  Ni13  1  0.50000000  0.65235200  0.75000000  1
  Ni  Ni14  1  0.00000000  0.95130950  0.75000000  1
  Ni  Ni15  1  0.00000000  0.84764800  0.25000000  1
  Ni  Ni16  1  0.50000000  0.54869050  0.25000000  1
  Ni  Ni17  1  0.00000000  0.15235200  0.75000000  1
  Ni  Ni18  1  0.50000000  0.45130950  0.75000000  1
  Ni  Ni19  1  0.50000000  0.34764800  0.25000000  1
  O  O20  1  0.75000000  0.75000000  0.00000000  1
  O  O21  1  0.25000000  0.75000000  0.50000000  1
  O  O22  1  0.25353100  0.05629800  0.00689200  1
  O  O23  1  0.74646900  0.94370200  0.99310800  1
  O  O24  1  0.25353100  0.94370200  0.50689200  1
  O  O25  1  0.74646900  0.05629800  0.49310800  1
  O  O26  1  0.26122850  0.85175850  0.98342400  1
  O  O27  1  0.73877150  0.85175850  0.51657600  1
  O  O28  1  0.73877150  0.14824150  0.01657600  1
  O  O29  1  0.26122850  0.14824150  0.48342400  1
  O  O30  1  0.25000000  0.25000000  0.00000000  1
  O  O31  1  0.75000000  0.25000000  0.50000000  1
  O  O32  1  0.75353100  0.55629800  0.00689200  1
  O  O33  1  0.24646900  0.44370200  0.99310800  1
  O  O34  1  0.75353100  0.44370200  0.50689200  1
  O  O35  1  0.24646900  0.55629800  0.49310800  1
  O  O36  1  0.76122850  0.35175850  0.98342400  1
  O  O37  1  0.23877150  0.35175850  0.51657600  1
  O  O38  1  0.23877150  0.64824150  0.01657600  1
  O  O39  1  0.76122850  0.64824150  0.48342400  1
