# generated using pymatgen
data_Fe4O3F5
_symmetry_space_group_name_H-M   'P 1'
_cell_length_a   9.58328000
_cell_length_b   6.17823800
_cell_length_c   4.79999378
_cell_angle_alpha   90.00000000
_cell_angle_beta   94.29943234
_cell_angle_gamma   90.00000000
_symmetry_Int_Tables_number   1
_chemical_formula_structural   Fe4O3F5
_chemical_formula_sum   'Fe8 O6 F10'
_cell_volume   283.39723237
_cell_formula_units_Z   2
loop_
 _symmetry_equiv_pos_site_id
 _symmetry_equiv_pos_as_xyz
  1  'x, y, z'
loop_
 _atom_site_type_symbol
 _atom_site_label
 _atom_site_symmetry_multiplicity
 _atom_site_fract_x
 _atom_site_fract_y
 _atom_site_fract_z
 _atom_site_occupancy
  Fe  Fe0  1  0.75508800  0.23917100  0.51001200  1
  Fe  Fe1  1  0.75508800  0.76082900  0.51001200  1
  Fe  Fe2  1  0.49905100  0.00000000  0.99686400  1
  Fe  Fe3  1  0.99517100  0.00000000  0.99234100  1
  Fe  Fe4  1  0.25508800  0.73917100  0.51001200  1
  Fe  Fe5  1  0.25508800  0.26082900  0.51001200  1
  Fe  Fe6  1  0.99905100  0.50000000  0.99686400  1
  Fe  Fe7  1  0.49517100  0.50000000  0.99234100  1
  O  O8  1  0.84892300  0.00000000  0.68911800  1
  O  O9  1  0.34625400  0.00000000  0.69769700  1
  O  O10  1  0.64999300  0.00000000  0.29664900  1
  O  O11  1  0.34892300  0.50000000  0.68911800  1
  O  O12  1  0.84625400  0.50000000  0.69769700  1
  O  O13  1  0.14999300  0.50000000  0.29664900  1
  F  F14  1  0.60123250  0.75872350  0.79966800  1
  F  F15  1  0.60123250  0.24127650  0.79966800  1
  F  F16  1  0.14983900  0.00000000  0.30500600  1
  F  F17  1  0.39906400  0.23842000  0.20148200  1
  F  F18  1  0.39906400  0.76158000  0.20148200  1
  F  F19  1  0.10123250  0.25872350  0.79966800  1
  F  F20  1  0.10123250  0.74127650  0.79966800  1
  F  F21  1  0.64983900  0.50000000  0.30500600  1
  F  F22  1  0.89906400  0.73842000  0.20148200  1
  F  F23  1  0.89906400  0.26158000  0.20148200  1
