# generated using pymatgen
data_La6Mn3O14
_symmetry_space_group_name_H-M   'P 1'
_cell_length_a   5.59630200
_cell_length_b   5.57201500
_cell_length_c   21.09742532
_cell_angle_alpha   90.00000000
_cell_angle_beta   105.28008376
_cell_angle_gamma   90.00000000
_symmetry_Int_Tables_number   1
_chemical_formula_structural   La6Mn3O14
_chemical_formula_sum   'La12 Mn6 O28'
_cell_volume   634.61777779
_cell_formula_units_Z   2
loop_
 _symmetry_equiv_pos_site_id
 _symmetry_equiv_pos_as_xyz
  1  'x, y, z'
loop_
 _atom_site_type_symbol
 _atom_site_label
 _atom_site_symmetry_multiplicity
 _atom_site_fract_x
 _atom_site_fract_y
 _atom_site_fract_z
 _atom_site_occupancy
  La  La0  1  0.57111700  0.97246100  0.32329600  1
  La  La1  1  0.91861700  0.98697000  0.68323000  1
  La  La2  1  0.73361600  0.02089200  0.49147100  1
  La  La3  1  0.73361600  0.97910800  0.99147100  1
  La  La4  1  0.91861700  0.01303000  0.18323000  1
  La  La5  1  0.57111700  0.02753900  0.82329600  1
  La  La6  1  0.44324100  0.48797800  0.18090300  1
  La  La7  1  0.10457200  0.49585800  0.82259700  1
  La  La8  1  0.21756900  0.49244000  0.99001000  1
  La  La9  1  0.21756900  0.50756000  0.49001000  1
  La  La10  1  0.10457200  0.50414200  0.32259700  1
  La  La11  1  0.44324100  0.51202200  0.68090300  1
  Mn  Mn12  1  0.34544500  0.99844200  0.09656900  1
  Mn  Mn13  1  0.14763800  0.99492500  0.90196000  1
  Mn  Mn14  1  0.14763800  0.00507500  0.40196000  1
  Mn  Mn15  1  0.34544500  0.00155800  0.59656900  1
  Mn  Mn16  1  0.85216300  0.49629000  0.59777100  1
  Mn  Mn17  1  0.85216300  0.50371000  0.09777100  1
  O  O18  1  0.11450300  0.75176300  0.11842800  1
  O  O19  1  0.60714500  0.75164300  0.09977100  1
  O  O20  1  0.39824400  0.76424700  0.41424700  1
  O  O21  1  0.91490100  0.75849200  0.40246600  1
  O  O22  1  0.59036000  0.74778700  0.58187300  1
  O  O23  1  0.09887900  0.74672800  0.60016000  1
  O  O24  1  0.90105300  0.75816800  0.88898900  1
  O  O25  1  0.39361500  0.76030000  0.90276100  1
  O  O26  1  0.19941500  0.95395900  0.99644300  1
  O  O27  1  0.07986200  0.97221400  0.29982800  1
  O  O28  1  0.51111400  0.95412200  0.70713800  1
  O  O29  1  0.51111400  0.04587800  0.20713800  1
  O  O30  1  0.07986200  0.02778600  0.79982800  1
  O  O31  1  0.19941500  0.04604100  0.49644300  1
  O  O32  1  0.09887900  0.25327200  0.10016000  1
  O  O33  1  0.59036000  0.25221300  0.08187300  1
  O  O34  1  0.90105300  0.24183200  0.38898900  1
  O  O35  1  0.39361500  0.23970000  0.40276100  1
  O  O36  1  0.60714500  0.24835700  0.59977100  1
  O  O37  1  0.11450300  0.24823700  0.61842800  1
  O  O38  1  0.91490100  0.24150800  0.90246600  1
  O  O39  1  0.39824400  0.23575300  0.91424700  1
  O  O40  1  0.81567600  0.44402700  0.50829200  1
  O  O41  1  0.91095400  0.45792800  0.20088300  1
  O  O42  1  0.46594100  0.43458400  0.78571300  1
  O  O43  1  0.46594100  0.56541600  0.28571300  1
  O  O44  1  0.91095400  0.54207200  0.70088300  1
  O  O45  1  0.81567600  0.55597300  0.00829200  1
