# generated using pymatgen
data_LiCoPO4
_symmetry_space_group_name_H-M   'P 1'
_cell_length_a   5.15147159
_cell_length_b   8.96942983
_cell_length_c   9.35399131
_cell_angle_alpha   90.00000000
_cell_angle_beta   90.82933708
_cell_angle_gamma   90.00000000
_symmetry_Int_Tables_number   1
_chemical_formula_structural   LiCoPO4
_chemical_formula_sum   'Li4 Co4 P4 O16'
_cell_volume   432.16302895
_cell_formula_units_Z   4
loop_
 _symmetry_equiv_pos_site_id
 _symmetry_equiv_pos_as_xyz
  1  'x, y, z'
loop_
 _atom_site_type_symbol
 _atom_site_label
 _atom_site_symmetry_multiplicity
 _atom_site_fract_x
 _atom_site_fract_y
 _atom_site_fract_z
 _atom_site_occupancy
  Li  Li0  1  0.50482300  0.49976050  0.74261700  1
  Li  Li1  1  0.00482300  0.00023950  0.24261700  1
  Li  Li2  1  0.00482300  0.99976050  0.74261700  1
  Li  Li3  1  0.50482300  0.50023950  0.24261700  1
  Co  Co4  1  0.00313750  0.33337500  0.34722150  1
  Co  Co5  1  0.50313750  0.16662500  0.84722150  1
  Co  Co6  1  0.50313750  0.83337500  0.34722150  1
  Co  Co7  1  0.00313750  0.66662500  0.84722150  1
  P  P8  1  0.99914300  0.33033850  0.71219400  1
  P  P9  1  0.49914300  0.16966150  0.21219400  1
  P  P10  1  0.49914300  0.83033850  0.71219400  1
  P  P11  1  0.99914300  0.66966150  0.21219400  1
  O  O12  1  0.86614450  0.47394450  0.77021150  1
  O  O13  1  0.36614450  0.02605550  0.27021150  1
  O  O14  1  0.96850050  0.32406850  0.55002800  1
  O  O15  1  0.46850050  0.17593150  0.05002800  1
  O  O16  1  0.86673300  0.19061400  0.77958800  1
  O  O17  1  0.36673300  0.30938600  0.27958800  1
  O  O18  1  0.29135900  0.33072250  0.75838800  1
  O  O19  1  0.79135900  0.16927750  0.25838800  1
  O  O20  1  0.36614450  0.97394450  0.77021150  1
  O  O21  1  0.86614450  0.52605550  0.27021150  1
  O  O22  1  0.46850050  0.82406850  0.55002800  1
  O  O23  1  0.96850050  0.67593150  0.05002800  1
  O  O24  1  0.36673300  0.69061400  0.77958800  1
  O  O25  1  0.86673300  0.80938600  0.27958800  1
  O  O26  1  0.79135900  0.83072250  0.75838800  1
  O  O27  1  0.29135900  0.66927750  0.25838800  1
