# generated using pymatgen
data_V4OF11
_symmetry_space_group_name_H-M   'P 1'
_cell_length_a   5.48118977
_cell_length_b   5.27208200
_cell_length_c   7.46504022
_cell_angle_alpha   90.00000000
_cell_angle_beta   93.27285303
_cell_angle_gamma   90.00000000
_symmetry_Int_Tables_number   1
_chemical_formula_structural   V4OF11
_chemical_formula_sum   'V4 O1 F11'
_cell_volume   215.36752867
_cell_formula_units_Z   1
loop_
 _symmetry_equiv_pos_site_id
 _symmetry_equiv_pos_as_xyz
  1  'x, y, z'
loop_
 _atom_site_type_symbol
 _atom_site_label
 _atom_site_symmetry_multiplicity
 _atom_site_fract_x
 _atom_site_fract_y
 _atom_site_fract_z
 _atom_site_occupancy
  V  V0  1  0.99977800  0.49354600  0.73761900  1
  V  V1  1  0.00022200  0.49354600  0.26238100  1
  V  V2  1  0.49992200  0.99951900  0.75056100  1
  V  V3  1  0.50007800  0.99951900  0.24943900  1
  O  O4  1  0.00000000  0.42856500  0.50000000  1
  F  F5  1  0.50000000  0.11088400  0.50000000  1
  F  F6  1  0.80285700  0.19639900  0.80159600  1
  F  F7  1  0.19714300  0.19639900  0.19840400  1
  F  F8  1  0.70036200  0.30125500  0.19775200  1
  F  F9  1  0.29963800  0.30125500  0.80224800  1
  F  F10  1  0.00000000  0.58588700  0.00000000  1
  F  F11  1  0.69835600  0.69694400  0.70136600  1
  F  F12  1  0.30164400  0.69694400  0.29863400  1
  F  F13  1  0.80364700  0.80542700  0.29725700  1
  F  F14  1  0.19635300  0.80542700  0.70274300  1
  F  F15  1  0.50000000  0.88836300  0.00000000  1
