# generated using pymatgen
data_Li2CrSiO4
_symmetry_space_group_name_H-M   'P 1'
_cell_length_a   4.97202301
_cell_length_b   5.27469701
_cell_length_c   6.58657700
_cell_angle_alpha   90.00000000
_cell_angle_beta   90.00000000
_cell_angle_gamma   90.00000000
_symmetry_Int_Tables_number   1
_chemical_formula_structural   Li2CrSiO4
_chemical_formula_sum   'Li4 Cr2 Si2 O8'
_cell_volume   172.73900814
_cell_formula_units_Z   2
loop_
 _symmetry_equiv_pos_site_id
 _symmetry_equiv_pos_as_xyz
  1  'x, y, z'
loop_
 _atom_site_type_symbol
 _atom_site_label
 _atom_site_symmetry_multiplicity
 _atom_site_fract_x
 _atom_site_fract_y
 _atom_site_fract_z
 _atom_site_occupancy
  Li  Li0  1  0.99223200  0.32601150  0.24821250  1
  Li  Li1  1  0.49223200  0.67398850  0.25178750  1
  Li  Li2  1  0.49223200  0.67398850  0.74821250  1
  Li  Li3  1  0.99223200  0.32601150  0.75178750  1
  Cr  Cr4  1  0.50511600  0.20168750  0.50000000  1
  Cr  Cr5  1  0.00511600  0.79831250  0.00000000  1
  Si  Si6  1  0.47960500  0.16609650  0.00000000  1
  Si  Si7  1  0.97960500  0.83390350  0.50000000  1
  O  O8  1  0.57126300  0.86241050  0.00000000  1
  O  O9  1  0.07126300  0.13758950  0.50000000  1
  O  O10  1  0.14875800  0.18420350  0.00000000  1
  O  O11  1  0.64875800  0.81579650  0.50000000  1
  O  O12  1  0.59134700  0.30794150  0.20776850  1
  O  O13  1  0.09134700  0.69205850  0.29223150  1
  O  O14  1  0.09134700  0.69205850  0.70776850  1
  O  O15  1  0.59134700  0.30794150  0.79223150  1
