# generated using pymatgen
data_LiFeBO3
_symmetry_space_group_name_H-M   'P 1'
_cell_length_a   8.20292207
_cell_length_b   8.20292207
_cell_length_c   3.14546055
_cell_angle_alpha   90.00000000
_cell_angle_beta   90.00000000
_cell_angle_gamma   120.00000000
_symmetry_Int_Tables_number   1
_chemical_formula_structural   LiFeBO3
_chemical_formula_sum   'Li3 Fe3 B3 O9'
_cell_volume   183.29560296
_cell_formula_units_Z   3
loop_
 _symmetry_equiv_pos_site_id
 _symmetry_equiv_pos_as_xyz
  1  'x, y, z'
loop_
 _atom_site_type_symbol
 _atom_site_label
 _atom_site_symmetry_multiplicity
 _atom_site_fract_x
 _atom_site_fract_y
 _atom_site_fract_z
 _atom_site_occupancy
  Li  Li0  1  0.96560183  0.61589067  0.00000000  1
  Li  Li1  1  0.38410933  0.34971117  0.00000000  1
  Li  Li2  1  0.65028883  0.03439817  0.00000000  1
  Fe  Fe3  1  0.29085333  0.96823017  0.50000000  1
  Fe  Fe4  1  0.03176983  0.32262317  0.50000000  1
  Fe  Fe5  1  0.67737683  0.70914667  0.50000000  1
  B  B6  1  0.33333333  0.66666667  0.00000000  1
  B  B7  1  0.66666667  0.33333333  0.50000000  1
  B  B8  1  0.00000000  0.00000000  0.00000000  1
  O  O9  1  0.86165833  0.44212567  0.50000000  1
  O  O10  1  0.55787433  0.41953267  0.50000000  1
  O  O11  1  0.58046733  0.13834167  0.50000000  1
  O  O12  1  0.22689333  0.47208017  0.00000000  1
  O  O13  1  0.24518683  0.77310667  0.00000000  1
  O  O14  1  0.52791983  0.75481317  0.00000000  1
  O  O15  1  0.88532183  0.80561767  0.00000000  1
  O  O16  1  0.92029583  0.11467817  0.00000000  1
  O  O17  1  0.19438233  0.07970417  0.00000000  1
