# generated using pymatgen
data_Na7Ti11O24
_symmetry_space_group_name_H-M   'P 1'
_cell_length_a   10.60428000
_cell_length_b   18.41010200
_cell_length_c   6.23157840
_cell_angle_alpha   90.00000000
_cell_angle_beta   123.72182361
_cell_angle_gamma   90.00000000
_symmetry_Int_Tables_number   1
_chemical_formula_structural   Na7Ti11O24
_chemical_formula_sum   'Na14 Ti22 O48'
_cell_volume   1011.86938338
_cell_formula_units_Z   2
loop_
 _symmetry_equiv_pos_site_id
 _symmetry_equiv_pos_as_xyz
  1  'x, y, z'
loop_
 _atom_site_type_symbol
 _atom_site_label
 _atom_site_symmetry_multiplicity
 _atom_site_fract_x
 _atom_site_fract_y
 _atom_site_fract_z
 _atom_site_occupancy
  Na  Na0  1  0.62717500  0.16179200  0.39123000  1
  Na  Na1  1  0.50000000  0.00000000  0.50000000  1
  Na  Na2  1  0.87282500  0.33820800  0.60877000  1
  Na  Na3  1  0.37282500  0.16179200  0.60877000  1
  Na  Na4  1  0.11608300  0.00000000  0.35274800  1
  Na  Na5  1  0.88391700  0.00000000  0.64725200  1
  Na  Na6  1  0.12717500  0.33820800  0.39123000  1
  Na  Na7  1  0.12717500  0.66179200  0.39123000  1
  Na  Na8  1  0.00000000  0.50000000  0.50000000  1
  Na  Na9  1  0.37282500  0.83820800  0.60877000  1
  Na  Na10  1  0.87282500  0.66179200  0.60877000  1
  Na  Na11  1  0.61608300  0.50000000  0.35274800  1
  Na  Na12  1  0.38391700  0.50000000  0.64725200  1
  Na  Na13  1  0.62717500  0.83820800  0.39123000  1
  Ti  Ti14  1  0.75245800  0.08269300  0.02036400  1
  Ti  Ti15  1  0.75000000  0.25000000  0.00000000  1
  Ti  Ti16  1  0.50000000  0.00000000  0.00000000  1
  Ti  Ti17  1  0.74754200  0.41730700  0.97963600  1
  Ti  Ti18  1  0.25000000  0.25000000  0.00000000  1
  Ti  Ti19  1  0.24754200  0.08269300  0.97963600  1
  Ti  Ti20  1  0.50000000  0.33004500  0.00000000  1
  Ti  Ti21  1  0.00000000  0.16995500  0.00000000  1
  Ti  Ti22  1  0.50000000  0.32916000  0.50000000  1
  Ti  Ti23  1  0.00000000  0.17084000  0.50000000  1
  Ti  Ti24  1  0.25245800  0.41730700  0.02036400  1
  Ti  Ti25  1  0.25245800  0.58269300  0.02036400  1
  Ti  Ti26  1  0.25000000  0.75000000  0.00000000  1
  Ti  Ti27  1  0.00000000  0.50000000  0.00000000  1
  Ti  Ti28  1  0.24754200  0.91730700  0.97963600  1
  Ti  Ti29  1  0.75000000  0.75000000  0.00000000  1
  Ti  Ti30  1  0.74754200  0.58269300  0.97963600  1
  Ti  Ti31  1  0.00000000  0.83004500  0.00000000  1
  Ti  Ti32  1  0.50000000  0.66995500  0.00000000  1
  Ti  Ti33  1  0.00000000  0.82916000  0.50000000  1
  Ti  Ti34  1  0.50000000  0.67084000  0.50000000  1
  Ti  Ti35  1  0.75245800  0.91730700  0.02036400  1
  O  O36  1  0.02112500  0.24244200  0.77667700  1
  O  O37  1  0.97887500  0.24244200  0.22332300  1
  O  O38  1  0.77371750  0.17092450  0.24637400  1
  O  O39  1  0.77170600  0.16326800  0.81986700  1
  O  O40  1  0.77759700  0.00000000  0.86104000  1
  O  O41  1  0.73000200  0.00000000  0.22388700  1
  O  O42  1  0.04010950  0.42463050  0.82027200  1
  O  O43  1  0.52112500  0.25755800  0.77667700  1
  O  O44  1  0.54010950  0.07536950  0.82027200  1
  O  O45  1  0.95989050  0.42463050  0.17972800  1
  O  O46  1  0.45989050  0.07536950  0.17972800  1
  O  O47  1  0.47887500  0.25755800  0.22332300  1
  O  O48  1  0.22240300  0.00000000  0.13896000  1
  O  O49  1  0.26999800  0.00000000  0.77611300  1
  O  O50  1  0.72628250  0.32907550  0.75362600  1
  O  O51  1  0.22628250  0.17092450  0.75362600  1
  O  O52  1  0.72829400  0.33673200  0.18013300  1
  O  O53  1  0.22829400  0.16326800  0.18013300  1
  O  O54  1  0.50983700  0.39848900  0.75075100  1
  O  O55  1  0.00983700  0.10151100  0.75075100  1
  O  O56  1  0.49016300  0.39848900  0.24924900  1
  O  O57  1  0.99016300  0.10151100  0.24924900  1
  O  O58  1  0.27371750  0.32907550  0.24637400  1
  O  O59  1  0.27170600  0.33673200  0.81986700  1
  O  O60  1  0.52112500  0.74244200  0.77667700  1
  O  O61  1  0.47887500  0.74244200  0.22332300  1
  O  O62  1  0.27371750  0.67092450  0.24637400  1
  O  O63  1  0.27170600  0.66326800  0.81986700  1
  O  O64  1  0.27759700  0.50000000  0.86104000  1
  O  O65  1  0.23000200  0.50000000  0.22388700  1
  O  O66  1  0.54010950  0.92463050  0.82027200  1
  O  O67  1  0.02112500  0.75755800  0.77667700  1
  O  O68  1  0.04010950  0.57536950  0.82027200  1
  O  O69  1  0.45989050  0.92463050  0.17972800  1
  O  O70  1  0.95989050  0.57536950  0.17972800  1
  O  O71  1  0.97887500  0.75755800  0.22332300  1
  O  O72  1  0.72240300  0.50000000  0.13896000  1
  O  O73  1  0.76999800  0.50000000  0.77611300  1
  O  O74  1  0.22628250  0.82907550  0.75362600  1
  O  O75  1  0.72628250  0.67092450  0.75362600  1
  O  O76  1  0.22829400  0.83673200  0.18013300  1
  O  O77  1  0.72829400  0.66326800  0.18013300  1
  O  O78  1  0.00983700  0.89848900  0.75075100  1
  O  O79  1  0.50983700  0.60151100  0.75075100  1
  O  O80  1  0.99016300  0.89848900  0.24924900  1
  O  O81  1  0.49016300  0.60151100  0.24924900  1
  O  O82  1  0.77371750  0.82907550  0.24637400  1
  O  O83  1  0.77170600  0.83673200  0.81986700  1
