# generated using pymatgen
data_K2MnO4
_symmetry_space_group_name_H-M   'P 1'
_cell_length_a   6.12032195
_cell_length_b   8.14329785
_cell_length_c   11.71764144
_cell_angle_alpha   90.00000000
_cell_angle_beta   118.02001927
_cell_angle_gamma   90.00000000
_symmetry_Int_Tables_number   1
_chemical_formula_structural   K2MnO4
_chemical_formula_sum   'K8 Mn4 O16'
_cell_volume   515.54787608
_cell_formula_units_Z   4
loop_
 _symmetry_equiv_pos_site_id
 _symmetry_equiv_pos_as_xyz
  1  'x, y, z'
loop_
 _atom_site_type_symbol
 _atom_site_label
 _atom_site_symmetry_multiplicity
 _atom_site_fract_x
 _atom_site_fract_y
 _atom_site_fract_z
 _atom_site_occupancy
  K  K0  1  0.30174650  0.28056900  0.08892900  1
  K  K1  1  0.02032850  0.50854300  0.28270200  1
  K  K2  1  0.30174650  0.21943100  0.58892900  1
  K  K3  1  0.97967150  0.00854300  0.21729800  1
  K  K4  1  0.02032850  0.99145700  0.78270200  1
  K  K5  1  0.69825350  0.78056900  0.41107100  1
  K  K6  1  0.97967150  0.49145700  0.71729800  1
  K  K7  1  0.69825350  0.71943100  0.91107100  1
  Mn  Mn8  1  0.35327650  0.74901300  0.07173600  1
  Mn  Mn9  1  0.35327650  0.75098700  0.57173600  1
  Mn  Mn10  1  0.64672350  0.24901300  0.42826400  1
  Mn  Mn11  1  0.64672350  0.25098700  0.92826400  1
  O  O12  1  0.25834050  0.93499500  0.08544900  1
  O  O13  1  0.24371450  0.60803900  0.13379200  1
  O  O14  1  0.24814650  0.79200300  0.41478200  1
  O  O15  1  0.33702850  0.24582300  0.35168400  1
  O  O16  1  0.25834050  0.56500500  0.58544900  1
  O  O17  1  0.24371450  0.89196100  0.63379200  1
  O  O18  1  0.66297150  0.74582300  0.14831600  1
  O  O19  1  0.75185350  0.29200300  0.08521800  1
  O  O20  1  0.24814650  0.70799700  0.91478200  1
  O  O21  1  0.33702850  0.25417700  0.85168400  1
  O  O22  1  0.75628550  0.10803900  0.36620800  1
  O  O23  1  0.74165950  0.43499500  0.41455100  1
  O  O24  1  0.66297150  0.75417700  0.64831600  1
  O  O25  1  0.75185350  0.20799700  0.58521800  1
  O  O26  1  0.75628550  0.39196100  0.86620800  1
  O  O27  1  0.74165950  0.06500500  0.91455100  1
