# generated using pymatgen
data_Li3Mn2(CO5)2
_symmetry_space_group_name_H-M   'P 1'
_cell_length_a   5.79366100
_cell_length_b   9.63019000
_cell_length_c   11.70386800
_cell_angle_alpha   90.00000000
_cell_angle_beta   90.00000000
_cell_angle_gamma   90.00000000
_symmetry_Int_Tables_number   1
_chemical_formula_structural   Li3Mn2(CO5)2
_chemical_formula_sum   'Li12 Mn8 C8 O40'
_cell_volume   653.00626925
_cell_formula_units_Z   4
loop_
 _symmetry_equiv_pos_site_id
 _symmetry_equiv_pos_as_xyz
  1  'x, y, z'
loop_
 _atom_site_type_symbol
 _atom_site_label
 _atom_site_symmetry_multiplicity
 _atom_site_fract_x
 _atom_site_fract_y
 _atom_site_fract_z
 _atom_site_occupancy
  Li  Li0  1  0.50000000  0.74683200  0.00187700  1
  Li  Li1  1  0.74774500  0.75134800  0.49555500  1
  Li  Li2  1  0.25225500  0.75134800  0.49555500  1
  Li  Li3  1  0.00000000  0.75167100  0.27938000  1
  Li  Li4  1  0.00000000  0.24832900  0.77938000  1
  Li  Li5  1  0.50000000  0.25316800  0.50187700  1
  Li  Li6  1  0.74774500  0.24865200  0.99555500  1
  Li  Li7  1  0.25225500  0.24865200  0.99555500  1
  Li  Li8  1  0.00000000  0.25248600  0.21914200  1
  Li  Li9  1  0.50000000  0.25567900  0.21884500  1
  Li  Li10  1  0.00000000  0.74751400  0.71914200  1
  Li  Li11  1  0.50000000  0.74432100  0.71884500  1
  Mn  Mn12  1  0.74912800  0.99464100  0.11178800  1
  Mn  Mn13  1  0.25087200  0.99464100  0.11178800  1
  Mn  Mn14  1  0.74912800  0.00535900  0.61178800  1
  Mn  Mn15  1  0.25087200  0.00535900  0.61178800  1
  Mn  Mn16  1  0.75039800  0.49422800  0.38830600  1
  Mn  Mn17  1  0.24960200  0.49422800  0.38830600  1
  Mn  Mn18  1  0.75039800  0.50577200  0.88830600  1
  Mn  Mn19  1  0.24960200  0.50577200  0.88830600  1
  C  C20  1  0.24926700  0.98905600  0.86227200  1
  C  C21  1  0.75073300  0.98905600  0.86227200  1
  C  C22  1  0.75073300  0.01094400  0.36227200  1
  C  C23  1  0.24926700  0.01094400  0.36227200  1
  C  C24  1  0.75001000  0.49203800  0.63890400  1
  C  C25  1  0.24999000  0.49203800  0.63890400  1
  C  C26  1  0.75001000  0.50796200  0.13890400  1
  C  C27  1  0.24999000  0.50796200  0.13890400  1
  O  O28  1  0.00000000  0.87812800  0.14878200  1
  O  O29  1  0.50000000  0.87498300  0.14344400  1
  O  O30  1  0.00000000  0.88023500  0.57691100  1
  O  O31  1  0.50000000  0.87976200  0.57768300  1
  O  O32  1  0.76054000  0.88071100  0.36188500  1
  O  O33  1  0.23946000  0.88071100  0.36188500  1
  O  O34  1  0.74189800  0.91328400  0.95521100  1
  O  O35  1  0.25810200  0.91328400  0.95521100  1
  O  O36  1  0.74900600  0.91482500  0.76692600  1
  O  O37  1  0.25099400  0.91482500  0.76692600  1
  O  O38  1  0.74900600  0.08517500  0.26692600  1
  O  O39  1  0.25099400  0.08517500  0.26692600  1
  O  O40  1  0.74189800  0.08671600  0.45521100  1
  O  O41  1  0.25810200  0.08671600  0.45521100  1
  O  O42  1  0.76054000  0.11928900  0.86188500  1
  O  O43  1  0.23946000  0.11928900  0.86188500  1
  O  O44  1  0.00000000  0.11976500  0.07691100  1
  O  O45  1  0.50000000  0.12023800  0.07768300  1
  O  O46  1  0.00000000  0.12187200  0.64878200  1
  O  O47  1  0.50000000  0.12501700  0.64344400  1
  O  O48  1  0.00000000  0.37780700  0.35163000  1
  O  O49  1  0.50000000  0.37140200  0.35591000  1
  O  O50  1  0.00000000  0.37959500  0.92274000  1
  O  O51  1  0.50000000  0.38537900  0.92609900  1
  O  O52  1  0.74995700  0.37567700  0.13767500  1
  O  O53  1  0.25004300  0.37567700  0.13767500  1
  O  O54  1  0.74546100  0.41635900  0.54625400  1
  O  O55  1  0.25453900  0.41635900  0.54625400  1
  O  O56  1  0.75461600  0.42020500  0.73339300  1
  O  O57  1  0.24538400  0.42020500  0.73339300  1
  O  O58  1  0.75461600  0.57979500  0.23339300  1
  O  O59  1  0.24538400  0.57979500  0.23339300  1
  O  O60  1  0.74546100  0.58364100  0.04625400  1
  O  O61  1  0.25453900  0.58364100  0.04625400  1
  O  O62  1  0.74995700  0.62432300  0.63767500  1
  O  O63  1  0.25004300  0.62432300  0.63767500  1
  O  O64  1  0.00000000  0.62040500  0.42274000  1
  O  O65  1  0.50000000  0.61462100  0.42609900  1
  O  O66  1  0.00000000  0.62219300  0.85163000  1
  O  O67  1  0.50000000  0.62859800  0.85591000  1
