# generated using pymatgen
data_Fe4O3F5
_symmetry_space_group_name_H-M   'P 1'
_cell_length_a   6.20814200
_cell_length_b   6.48693397
_cell_length_c   7.05982340
_cell_angle_alpha   90.00000000
_cell_angle_beta   90.00000000
_cell_angle_gamma   90.00000000
_symmetry_Int_Tables_number   1
_chemical_formula_structural   Fe4O3F5
_chemical_formula_sum   'Fe8 O6 F10'
_cell_volume   284.31184708
_cell_formula_units_Z   2
loop_
 _symmetry_equiv_pos_site_id
 _symmetry_equiv_pos_as_xyz
  1  'x, y, z'
loop_
 _atom_site_type_symbol
 _atom_site_label
 _atom_site_symmetry_multiplicity
 _atom_site_fract_x
 _atom_site_fract_y
 _atom_site_fract_z
 _atom_site_occupancy
  Fe  Fe0  1  0.25993700  0.01049100  0.50000000  1
  Fe  Fe1  1  0.24006300  0.51049100  0.00000000  1
  Fe  Fe2  1  0.00000000  0.47503300  0.50000000  1
  Fe  Fe3  1  0.00000000  0.00825000  0.00000000  1
  Fe  Fe4  1  0.75993700  0.51049100  0.00000000  1
  Fe  Fe5  1  0.74006300  0.01049100  0.50000000  1
  Fe  Fe6  1  0.50000000  0.97503300  0.00000000  1
  Fe  Fe7  1  0.50000000  0.50825000  0.50000000  1
  O  O8  1  0.00000000  0.17739500  0.50000000  1
  O  O9  1  0.00000000  0.70895100  0.00000000  1
  O  O10  1  0.00000000  0.30467300  0.00000000  1
  O  O11  1  0.50000000  0.67739500  0.00000000  1
  O  O12  1  0.50000000  0.20895100  0.50000000  1
  O  O13  1  0.50000000  0.80467300  0.50000000  1
  F  F14  1  0.25863800  0.50322700  0.29962300  1
  F  F15  1  0.74136200  0.50322700  0.29962300  1
  F  F16  1  0.50000000  0.29181000  0.00000000  1
  F  F17  1  0.75863800  0.00322700  0.20037700  1
  F  F18  1  0.24136200  0.00322700  0.20037700  1
  F  F19  1  0.75863800  0.00322700  0.79962300  1
  F  F20  1  0.24136200  0.00322700  0.79962300  1
  F  F21  1  0.00000000  0.79181000  0.50000000  1
  F  F22  1  0.25863800  0.50322700  0.70037700  1
  F  F23  1  0.74136200  0.50322700  0.70037700  1
