# generated using pymatgen
data_Li4Ti3Fe3(CuO8)2
_symmetry_space_group_name_H-M   'P 1'
_cell_length_a   10.31040662
_cell_length_b   5.90061630
_cell_length_c   9.61446688
_cell_angle_alpha   90.00000000
_cell_angle_beta   90.95608927
_cell_angle_gamma   90.00000000
_symmetry_Int_Tables_number   1
_chemical_formula_structural   Li4Ti3Fe3(CuO8)2
_chemical_formula_sum   'Li8 Ti6 Fe6 Cu4 O32'
_cell_volume   584.84112996
_cell_formula_units_Z   2
loop_
 _symmetry_equiv_pos_site_id
 _symmetry_equiv_pos_as_xyz
  1  'x, y, z'
loop_
 _atom_site_type_symbol
 _atom_site_label
 _atom_site_symmetry_multiplicity
 _atom_site_fract_x
 _atom_site_fract_y
 _atom_site_fract_z
 _atom_site_occupancy
  Li  Li0  1  0.66529500  0.00000000  0.89601600  1
  Li  Li1  1  0.99450150  0.00000000  0.99494100  1
  Li  Li2  1  0.99655750  0.00000000  0.49573900  1
  Li  Li3  1  0.83046350  0.50000000  0.39703100  1
  Li  Li4  1  0.16529500  0.50000000  0.89601600  1
  Li  Li5  1  0.49450150  0.50000000  0.99494100  1
  Li  Li6  1  0.49655750  0.50000000  0.49573900  1
  Li  Li7  1  0.33046350  0.00000000  0.39703100  1
  Ti  Ti8  1  0.58196950  0.75712350  0.21143200  1
  Ti  Ti9  1  0.58196950  0.24287650  0.21143200  1
  Ti  Ti10  1  0.66880400  0.50000000  0.71358500  1
  Ti  Ti11  1  0.08196950  0.25712350  0.21143200  1
  Ti  Ti12  1  0.08196950  0.74287650  0.21143200  1
  Ti  Ti13  1  0.16880400  0.00000000  0.71358500  1
  Fe  Fe14  1  0.82926450  0.00000000  0.21225200  1
  Fe  Fe15  1  0.91432700  0.25584700  0.71146200  1
  Fe  Fe16  1  0.91432700  0.74415300  0.71146200  1
  Fe  Fe17  1  0.32926450  0.50000000  0.21225200  1
  Fe  Fe18  1  0.41432700  0.75584700  0.71146200  1
  Fe  Fe19  1  0.41432700  0.24415300  0.71146200  1
  Cu  Cu20  1  0.66492300  0.00000000  0.48669600  1
  Cu  Cu21  1  0.83500900  0.50000000  0.98547200  1
  Cu  Cu22  1  0.16492300  0.50000000  0.48669600  1
  Cu  Cu23  1  0.33500900  0.00000000  0.98547200  1
  O  O24  1  0.58339800  0.74821000  0.60283100  1
  O  O25  1  0.51641200  0.00000000  0.33451500  1
  O  O26  1  0.65857150  0.00000000  0.10226900  1
  O  O27  1  0.50026650  0.50000000  0.31028500  1
  O  O28  1  0.50048800  0.50000000  0.80889900  1
  O  O29  1  0.58339800  0.25179000  0.60283100  1
  O  O30  1  0.73420050  0.78031750  0.33975500  1
  O  O31  1  0.73420050  0.21968250  0.33975500  1
  O  O32  1  0.66118000  0.50000000  0.10632100  1
  O  O33  1  0.83375450  0.00000000  0.60173700  1
  O  O34  1  0.75598300  0.28640900  0.84145600  1
  O  O35  1  0.75598300  0.71359100  0.84145600  1
  O  O36  1  0.82661000  0.50000000  0.60190800  1
  O  O37  1  0.91814200  0.25030500  0.10261400  1
  O  O38  1  0.97783500  0.50000000  0.83849300  1
  O  O39  1  0.91814200  0.74969500  0.10261400  1
  O  O40  1  0.08339800  0.24821000  0.60283100  1
  O  O41  1  0.01641200  0.50000000  0.33451500  1
  O  O42  1  0.15857150  0.50000000  0.10226900  1
  O  O43  1  0.00026650  0.00000000  0.31028500  1
  O  O44  1  0.00048800  0.00000000  0.80889900  1
  O  O45  1  0.08339800  0.75179000  0.60283100  1
  O  O46  1  0.23420050  0.28031750  0.33975500  1
  O  O47  1  0.23420050  0.71968250  0.33975500  1
  O  O48  1  0.16118000  0.00000000  0.10632100  1
  O  O49  1  0.33375450  0.50000000  0.60173700  1
  O  O50  1  0.25598300  0.78640900  0.84145600  1
  O  O51  1  0.25598300  0.21359100  0.84145600  1
  O  O52  1  0.32661000  0.00000000  0.60190800  1
  O  O53  1  0.41814200  0.75030500  0.10261400  1
  O  O54  1  0.47783500  0.00000000  0.83849300  1
  O  O55  1  0.41814200  0.24969500  0.10261400  1
