# generated using pymatgen
data_Na3MnSiBO7
_symmetry_space_group_name_H-M   'P 1'
_cell_length_a   5.28999063
_cell_length_b   6.47267053
_cell_length_c   8.95227850
_cell_angle_alpha   90.00000000
_cell_angle_beta   92.57542159
_cell_angle_gamma   90.00000000
_symmetry_Int_Tables_number   1
_chemical_formula_structural   Na3MnSiBO7
_chemical_formula_sum   'Na6 Mn2 Si2 B2 O14'
_cell_volume   306.21968246
_cell_formula_units_Z   2
loop_
 _symmetry_equiv_pos_site_id
 _symmetry_equiv_pos_as_xyz
  1  'x, y, z'
loop_
 _atom_site_type_symbol
 _atom_site_label
 _atom_site_symmetry_multiplicity
 _atom_site_fract_x
 _atom_site_fract_y
 _atom_site_fract_z
 _atom_site_occupancy
  Na  Na0  1  0.76776600  0.75000000  0.91685175  1
  Na  Na1  1  0.23223400  0.25000000  0.08314825  1
  Na  Na2  1  0.25433200  0.98923300  0.73694575  1
  Na  Na3  1  0.25433200  0.51076700  0.73694575  1
  Na  Na4  1  0.74566800  0.48923300  0.26305425  1
  Na  Na5  1  0.74566800  0.01076700  0.26305425  1
  Mn  Mn6  1  0.78389500  0.25000000  0.66549025  1
  Mn  Mn7  1  0.21610500  0.75000000  0.33450975  1
  Si  Si8  1  0.72179450  0.75000000  0.57064425  1
  Si  Si9  1  0.27820550  0.25000000  0.42935575  1
  B  B10  1  0.72336900  0.25000000  0.93165425  1
  B  B11  1  0.27663100  0.75000000  0.06834575  1
  O  O12  1  0.31434900  0.75000000  0.92189025  1
  O  O13  1  0.68565100  0.25000000  0.07810975  1
  O  O14  1  0.95996100  0.25000000  0.86624125  1
  O  O15  1  0.04003900  0.75000000  0.13375875  1
  O  O16  1  0.53100200  0.25000000  0.81747825  1
  O  O17  1  0.46899800  0.75000000  0.18252175  1
  O  O18  1  0.41571800  0.75000000  0.52143925  1
  O  O19  1  0.58428200  0.25000000  0.47856075  1
  O  O20  1  0.11082150  0.25000000  0.57741125  1
  O  O21  1  0.88917850  0.75000000  0.42258875  1
  O  O22  1  0.78646350  0.94846800  0.68218525  1
  O  O23  1  0.78646350  0.55153200  0.68218525  1
  O  O24  1  0.21353650  0.44846800  0.31781475  1
  O  O25  1  0.21353650  0.05153200  0.31781475  1
