# generated using pymatgen
data_Eu6WO12
_symmetry_space_group_name_H-M   'P 1'
_cell_length_a   10.03151311
_cell_length_b   10.03151311
_cell_length_c   9.67776298
_cell_angle_alpha   90.00000000
_cell_angle_beta   90.00000000
_cell_angle_gamma   120.00000000
_symmetry_Int_Tables_number   1
_chemical_formula_structural   Eu6WO12
_chemical_formula_sum   'Eu18 W3 O36'
_cell_volume   843.40952850
_cell_formula_units_Z   3
loop_
 _symmetry_equiv_pos_site_id
 _symmetry_equiv_pos_as_xyz
  1  'x, y, z'
loop_
 _atom_site_type_symbol
 _atom_site_label
 _atom_site_symmetry_multiplicity
 _atom_site_fract_x
 _atom_site_fract_y
 _atom_site_fract_z
 _atom_site_occupancy
  Eu  Eu0  1  0.28719933  0.41044967  0.01603067  1
  Eu  Eu1  1  0.54341633  0.62053267  0.31730267  1
  Eu  Eu2  1  0.07711633  0.45658367  0.31730267  1
  Eu  Eu3  1  0.58955033  0.87674967  0.01603067  1
  Eu  Eu4  1  0.12325033  0.71280067  0.01603067  1
  Eu  Eu5  1  0.37946733  0.92288367  0.31730267  1
  Eu  Eu6  1  0.95386600  0.74378300  0.34936400  1
  Eu  Eu7  1  0.21008300  0.95386600  0.65063600  1
  Eu  Eu8  1  0.74378300  0.78991700  0.65063600  1
  Eu  Eu9  1  0.25621700  0.21008300  0.34936400  1
  Eu  Eu10  1  0.78991700  0.04613400  0.34936400  1
  Eu  Eu11  1  0.04613400  0.25621700  0.65063600  1
  Eu  Eu12  1  0.62053267  0.07711633  0.68269733  1
  Eu  Eu13  1  0.87674967  0.28719933  0.98396933  1
  Eu  Eu14  1  0.41044967  0.12325033  0.98396933  1
  Eu  Eu15  1  0.92288367  0.54341633  0.68269733  1
  Eu  Eu16  1  0.45658367  0.37946733  0.68269733  1
  Eu  Eu17  1  0.71280067  0.58955033  0.98396933  1
  W  W18  1  0.00000000  0.00000000  0.00000000  1
  W  W19  1  0.66666667  0.33333333  0.33333333  1
  W  W20  1  0.33333333  0.66666667  0.66666667  1
  O  O21  1  0.18002800  0.14308200  0.11007700  1
  O  O22  1  0.70361267  0.51336133  0.22325633  1
  O  O23  1  0.30086067  0.44183233  0.26547133  1
  O  O24  1  0.52569500  0.63419400  0.06786200  1
  O  O25  1  0.80974867  0.29638733  0.22325633  1
  O  O26  1  0.10849900  0.47430500  0.06786200  1
  O  O27  1  0.55816767  0.85902833  0.26547133  1
  O  O28  1  0.85691800  0.03694600  0.11007700  1
  O  O29  1  0.14097167  0.69913933  0.26547133  1
  O  O30  1  0.36580600  0.89150100  0.06786200  1
  O  O31  1  0.96305400  0.81997200  0.11007700  1
  O  O32  1  0.48663867  0.19025133  0.22325633  1
  O  O33  1  0.84669467  0.47641533  0.44341033  1
  O  O34  1  0.37027933  0.84669467  0.55658967  1
  O  O35  1  0.96752733  0.77516567  0.59880467  1
  O  O36  1  0.19236167  0.96752733  0.40119533  1
  O  O37  1  0.47641533  0.62972067  0.55658967  1
  O  O38  1  0.77516567  0.80763833  0.40119533  1
  O  O39  1  0.22483433  0.19236167  0.59880467  1
  O  O40  1  0.52358467  0.37027933  0.44341033  1
  O  O41  1  0.80763833  0.03247267  0.59880467  1
  O  O42  1  0.03247267  0.22483433  0.40119533  1
  O  O43  1  0.62972067  0.15330533  0.44341033  1
  O  O44  1  0.15330533  0.52358467  0.55658967  1
  O  O45  1  0.51336133  0.80974867  0.77674367  1
  O  O46  1  0.03694600  0.18002800  0.88992300  1
  O  O47  1  0.63419400  0.10849900  0.93213800  1
  O  O48  1  0.85902833  0.30086067  0.73452867  1
  O  O49  1  0.14308200  0.96305400  0.88992300  1
  O  O50  1  0.44183233  0.14097167  0.73452867  1
  O  O51  1  0.89150100  0.52569500  0.93213800  1
  O  O52  1  0.19025133  0.70361267  0.77674367  1
  O  O53  1  0.47430500  0.36580600  0.93213800  1
  O  O54  1  0.69913933  0.55816767  0.73452867  1
  O  O55  1  0.29638733  0.48663867  0.77674367  1
  O  O56  1  0.81997200  0.85691800  0.88992300  1
