# generated using pymatgen
data_Na2FeBPO7
_symmetry_space_group_name_H-M   'P 1'
_cell_length_a   5.28717933
_cell_length_b   6.64449800
_cell_length_c   9.07969012
_cell_angle_alpha   90.00000000
_cell_angle_beta   91.34448279
_cell_angle_gamma   90.00000000
_symmetry_Int_Tables_number   1
_chemical_formula_structural   Na2FeBPO7
_chemical_formula_sum   'Na4 Fe2 B2 P2 O14'
_cell_volume   318.88762287
_cell_formula_units_Z   2
loop_
 _symmetry_equiv_pos_site_id
 _symmetry_equiv_pos_as_xyz
  1  'x, y, z'
loop_
 _atom_site_type_symbol
 _atom_site_label
 _atom_site_symmetry_multiplicity
 _atom_site_fract_x
 _atom_site_fract_y
 _atom_site_fract_z
 _atom_site_occupancy
  Na  Na0  1  0.76171100  0.50347300  0.23372400  1
  Na  Na1  1  0.76171100  0.99652700  0.23372400  1
  Na  Na2  1  0.23828900  0.49652700  0.76627600  1
  Na  Na3  1  0.23828900  0.00347300  0.76627600  1
  Fe  Fe4  1  0.22072300  0.25000000  0.34993300  1
  Fe  Fe5  1  0.77927700  0.75000000  0.65006700  1
  B  B6  1  0.27306400  0.25000000  0.08131300  1
  B  B7  1  0.72693600  0.75000000  0.91868700  1
  P  P8  1  0.27747600  0.75000000  0.42766600  1
  P  P9  1  0.72252400  0.25000000  0.57233400  1
  O  O10  1  0.70032100  0.75000000  0.06477500  1
  O  O11  1  0.04092700  0.25000000  0.14688300  1
  O  O12  1  0.46801400  0.25000000  0.18615800  1
  O  O13  1  0.21011800  0.93971900  0.33656800  1
  O  O14  1  0.21011800  0.56028100  0.33656800  1
  O  O15  1  0.86809400  0.25000000  0.42512700  1
  O  O16  1  0.56932500  0.75000000  0.46579400  1
  O  O17  1  0.43067500  0.25000000  0.53420600  1
  O  O18  1  0.13190600  0.75000000  0.57487300  1
  O  O19  1  0.78988200  0.43971900  0.66343200  1
  O  O20  1  0.78988200  0.06028100  0.66343200  1
  O  O21  1  0.53198600  0.75000000  0.81384200  1
  O  O22  1  0.95907300  0.75000000  0.85311700  1
  O  O23  1  0.29967900  0.25000000  0.93522500  1
