# generated using pymatgen
data_VP6(WO8)3
_symmetry_space_group_name_H-M   'P 1'
_cell_length_a   8.78719018
_cell_length_b   8.78719018
_cell_length_c   22.02772114
_cell_angle_alpha   90.00000000
_cell_angle_beta   90.00000000
_cell_angle_gamma   120.00000000
_symmetry_Int_Tables_number   1
_chemical_formula_structural   VP6(WO8)3
_chemical_formula_sum   'V3 P18 W9 O72'
_cell_volume   1472.99154206
_cell_formula_units_Z   3
loop_
 _symmetry_equiv_pos_site_id
 _symmetry_equiv_pos_as_xyz
  1  'x, y, z'
loop_
 _atom_site_type_symbol
 _atom_site_label
 _atom_site_symmetry_multiplicity
 _atom_site_fract_x
 _atom_site_fract_y
 _atom_site_fract_z
 _atom_site_occupancy
  V  V0  1  0.00000000  0.00000000  0.14161800  1
  V  V1  1  0.66666667  0.33333333  0.47495133  1
  V  V2  1  0.33333333  0.66666667  0.80828467  1
  P  P3  1  0.28336933  0.99957967  0.24874667  1
  P  P4  1  0.00042033  0.28378967  0.24874667  1
  P  P5  1  0.71621033  0.71663067  0.24874667  1
  P  P6  1  0.95330933  0.62349167  0.08344867  1
  P  P7  1  0.67018233  0.04669067  0.08344867  1
  P  P8  1  0.37650833  0.32981767  0.08344867  1
  P  P9  1  0.95003600  0.33291300  0.58208000  1
  P  P10  1  0.66708700  0.61712300  0.58208000  1
  P  P11  1  0.38287700  0.04996400  0.58208000  1
  P  P12  1  0.61997600  0.95682500  0.41678200  1
  P  P13  1  0.33684900  0.38002400  0.41678200  1
  P  P14  1  0.04317500  0.66315100  0.41678200  1
  P  P15  1  0.61670267  0.66624633  0.91541333  1
  P  P16  1  0.33375367  0.95045633  0.91541333  1
  P  P17  1  0.04954367  0.38329733  0.91541333  1
  P  P18  1  0.28664267  0.29015833  0.75011533  1
  P  P19  1  0.00351567  0.71335733  0.75011533  1
  P  P20  1  0.70984167  0.99648433  0.75011533  1
  W  W21  1  0.66666667  0.33333333  0.19096633  1
  W  W22  1  0.33333333  0.66666667  0.30943567  1
  W  W23  1  0.33333333  0.66666667  0.02433667  1
  W  W24  1  0.33333333  0.66666667  0.52429967  1
  W  W25  1  0.00000000  0.00000000  0.64276900  1
  W  W26  1  0.00000000  0.00000000  0.35767000  1
  W  W27  1  0.00000000  0.00000000  0.85763300  1
  W  W28  1  0.66666667  0.33333333  0.97610233  1
  W  W29  1  0.66666667  0.33333333  0.69100333  1
  O  O30  1  0.46963900  0.31199100  0.02628400  1
  O  O31  1  0.84235200  0.53036100  0.02628400  1
  O  O32  1  0.47040200  0.16368900  0.24354300  1
  O  O33  1  0.68800900  0.15764800  0.02628400  1
  O  O34  1  0.30954233  0.83908467  0.25800667  1
  O  O35  1  0.17194067  0.96952133  0.19362433  1
  O  O36  1  0.83631100  0.30671300  0.24354300  1
  O  O37  1  0.16091533  0.47045767  0.25800667  1
  O  O38  1  0.52954233  0.69045767  0.25800667  1
  O  O39  1  0.86751367  0.50534033  0.14017533  1
  O  O40  1  0.97007167  0.80102833  0.08886633  1
  O  O41  1  0.63782667  0.13248633  0.14017533  1
  O  O42  1  0.03047867  0.20241933  0.19362433  1
  O  O43  1  0.69328700  0.52959800  0.24354300  1
  O  O44  1  0.79758067  0.82805933  0.19362433  1
  O  O45  1  0.13479267  0.63518733  0.07640233  1
  O  O46  1  0.50039467  0.86520733  0.07640233  1
  O  O47  1  0.83095667  0.02992833  0.08886633  1
  O  O48  1  0.49465967  0.36217333  0.14017533  1
  O  O49  1  0.36481267  0.49960533  0.07640233  1
  O  O50  1  0.97252800  0.17471300  0.30767300  1
  O  O51  1  0.19897167  0.16904333  0.08886633  1
  O  O52  1  0.82528700  0.79781500  0.30767300  1
  O  O53  1  0.20218500  0.02747200  0.30767300  1
  O  O54  1  0.13630567  0.64532433  0.35961733  1
  O  O55  1  0.50901867  0.86369433  0.35961733  1
  O  O56  1  0.13706867  0.49702233  0.57687633  1
  O  O57  1  0.35467567  0.49098133  0.35961733  1
  O  O58  1  0.97620900  0.17241800  0.59134000  1
  O  O59  1  0.83860733  0.30285467  0.52695767  1
  O  O60  1  0.50297767  0.64004633  0.57687633  1
  O  O61  1  0.82758200  0.80379100  0.59134000  1
  O  O62  1  0.19620900  0.02379100  0.59134000  1
  O  O63  1  0.53418033  0.83867367  0.47350867  1
  O  O64  1  0.63673833  0.13436167  0.42219967  1
  O  O65  1  0.30449333  0.46581967  0.47350867  1
  O  O66  1  0.69714533  0.53575267  0.52695767  1
  O  O67  1  0.35995367  0.86293133  0.57687633  1
  O  O68  1  0.46424733  0.16139267  0.52695767  1
  O  O69  1  0.80145933  0.96852067  0.40973567  1
  O  O70  1  0.16706133  0.19854067  0.40973567  1
  O  O71  1  0.49762333  0.36326167  0.42219967  1
  O  O72  1  0.16132633  0.69550667  0.47350867  1
  O  O73  1  0.03147933  0.83293867  0.40973567  1
  O  O74  1  0.63919467  0.50804633  0.64100633  1
  O  O75  1  0.86563833  0.50237667  0.42219967  1
  O  O76  1  0.49195367  0.13114833  0.64100633  1
  O  O77  1  0.86885167  0.36080533  0.64100633  1
  O  O78  1  0.80297233  0.97865767  0.69295067  1
  O  O79  1  0.17568533  0.19702767  0.69295067  1
  O  O80  1  0.80373533  0.83035567  0.91020967  1
  O  O81  1  0.02134233  0.82431467  0.69295067  1
  O  O82  1  0.64287567  0.50575133  0.92467333  1
  O  O83  1  0.50527400  0.63618800  0.86029100  1
  O  O84  1  0.16964433  0.97337967  0.91020967  1
  O  O85  1  0.49424867  0.13712433  0.92467333  1
  O  O86  1  0.86287567  0.35712433  0.92467333  1
  O  O87  1  0.20084700  0.17200700  0.80684200  1
  O  O88  1  0.30340500  0.46769500  0.75553300  1
  O  O89  1  0.97116000  0.79915300  0.80684200  1
  O  O90  1  0.36381200  0.86908600  0.86029100  1
  O  O91  1  0.02662033  0.19626467  0.91020967  1
  O  O92  1  0.13091400  0.49472600  0.86029100  1
  O  O93  1  0.46812600  0.30185400  0.74306900  1
  O  O94  1  0.83372800  0.53187400  0.74306900  1
  O  O95  1  0.16429000  0.69659500  0.75553300  1
  O  O96  1  0.82799300  0.02884000  0.80684200  1
  O  O97  1  0.69814600  0.16627200  0.74306900  1
  O  O98  1  0.30586133  0.84137967  0.97433967  1
  O  O99  1  0.53230500  0.83571000  0.75553300  1
  O  O100  1  0.15862033  0.46448167  0.97433967  1
  O  O101  1  0.53551833  0.69413867  0.97433967  1
