# generated using pymatgen
data_Li3VSiBO7
_symmetry_space_group_name_H-M   'P 1'
_cell_length_a   5.11376805
_cell_length_b   6.43185100
_cell_length_c   8.35889816
_cell_angle_alpha   90.00000000
_cell_angle_beta   94.55615517
_cell_angle_gamma   90.00000000
_symmetry_Int_Tables_number   1
_chemical_formula_structural   Li3VSiBO7
_chemical_formula_sum   'Li6 V2 Si2 B2 O14'
_cell_volume   274.06367219
_cell_formula_units_Z   2
loop_
 _symmetry_equiv_pos_site_id
 _symmetry_equiv_pos_as_xyz
  1  'x, y, z'
loop_
 _atom_site_type_symbol
 _atom_site_label
 _atom_site_symmetry_multiplicity
 _atom_site_fract_x
 _atom_site_fract_y
 _atom_site_fract_z
 _atom_site_occupancy
  Li  Li0  1  0.74285775  0.75000000  0.10674050  1
  Li  Li1  1  0.25714225  0.25000000  0.89325950  1
  Li  Li2  1  0.26232825  0.00547150  0.23182950  1
  Li  Li3  1  0.26232825  0.49452850  0.23182950  1
  Li  Li4  1  0.73767175  0.50547150  0.76817050  1
  Li  Li5  1  0.73767175  0.99452850  0.76817050  1
  V  V6  1  0.70472275  0.25000000  0.32500550  1
  V  V7  1  0.29527725  0.75000000  0.67499450  1
  Si  Si8  1  0.76934675  0.75000000  0.42691850  1
  Si  Si9  1  0.23065325  0.25000000  0.57308150  1
  B  B10  1  0.77871075  0.25000000  0.03826750  1
  B  B11  1  0.22128925  0.75000000  0.96173250  1
  O  O12  1  0.14355875  0.75000000  0.11228550  1
  O  O13  1  0.85644125  0.25000000  0.88771450  1
  O  O14  1  0.52320825  0.25000000  0.08560650  1
  O  O15  1  0.47679175  0.75000000  0.91439350  1
  O  O16  1  0.96727825  0.25000000  0.17407650  1
  O  O17  1  0.03272175  0.75000000  0.82592350  1
  O  O18  1  0.08499325  0.75000000  0.47774250  1
  O  O19  1  0.91500675  0.25000000  0.52225750  1
  O  O20  1  0.36804475  0.25000000  0.40125850  1
  O  O21  1  0.63195525  0.75000000  0.59874150  1
  O  O22  1  0.67722425  0.94487900  0.30943150  1
  O  O23  1  0.67722425  0.55512100  0.30943150  1
  O  O24  1  0.32277575  0.44487900  0.69056850  1
  O  O25  1  0.32277575  0.05512100  0.69056850  1
