# generated using pymatgen
data_Mn5Co(PO4)6
_symmetry_space_group_name_H-M   'P 1'
_cell_length_a   8.51321817
_cell_length_b   8.51321817
_cell_length_c   21.04107720
_cell_angle_alpha   90.00000000
_cell_angle_beta   90.00000000
_cell_angle_gamma   120.00000000
_symmetry_Int_Tables_number   1
_chemical_formula_structural   Mn5Co(PO4)6
_chemical_formula_sum   'Mn15 Co3 P18 O72'
_cell_volume   1320.64511163
_cell_formula_units_Z   3
loop_
 _symmetry_equiv_pos_site_id
 _symmetry_equiv_pos_as_xyz
  1  'x, y, z'
loop_
 _atom_site_type_symbol
 _atom_site_label
 _atom_site_symmetry_multiplicity
 _atom_site_fract_x
 _atom_site_fract_y
 _atom_site_fract_z
 _atom_site_occupancy
  Mn  Mn0  1  0.66666667  0.33333333  0.33190133  1
  Mn  Mn1  1  0.33333333  0.66666667  0.02298867  1
  Mn  Mn2  1  0.33333333  0.66666667  0.16681667  1
  Mn  Mn3  1  0.00000000  0.00000000  0.14281200  1
  Mn  Mn4  1  0.33333333  0.66666667  0.31026267  1
  Mn  Mn5  1  0.33333333  0.66666667  0.66523467  1
  Mn  Mn6  1  0.00000000  0.00000000  0.35632200  1
  Mn  Mn7  1  0.00000000  0.00000000  0.50015000  1
  Mn  Mn8  1  0.66666667  0.33333333  0.47614533  1
  Mn  Mn9  1  0.00000000  0.00000000  0.64359600  1
  Mn  Mn10  1  0.00000000  0.00000000  0.99856800  1
  Mn  Mn11  1  0.66666667  0.33333333  0.68965533  1
  Mn  Mn12  1  0.66666667  0.33333333  0.83348333  1
  Mn  Mn13  1  0.33333333  0.66666667  0.80947867  1
  Mn  Mn14  1  0.66666667  0.33333333  0.97692933  1
  Co  Co15  1  0.66666667  0.33333333  0.19177133  1
  Co  Co16  1  0.33333333  0.66666667  0.52510467  1
  Co  Co17  1  0.00000000  0.00000000  0.85843800  1
  P  P18  1  0.95276067  0.33331933  0.08452633  1
  P  P19  1  0.38055867  0.04723933  0.08452633  1
  P  P20  1  0.66668067  0.61944133  0.08452633  1
  P  P21  1  0.99779133  0.70863867  0.24939567  1
  P  P22  1  0.29136133  0.28915267  0.24939567  1
  P  P23  1  0.71084733  0.00220867  0.24939567  1
  P  P24  1  0.61942733  0.66665267  0.41785967  1
  P  P25  1  0.04722533  0.38057267  0.41785967  1
  P  P26  1  0.33334733  0.95277467  0.41785967  1
  P  P27  1  0.66445800  0.04197200  0.58272900  1
  P  P28  1  0.95802800  0.62248600  0.58272900  1
  P  P29  1  0.37751400  0.33554200  0.58272900  1
  P  P30  1  0.28609400  0.99998600  0.75119300  1
  P  P31  1  0.71389200  0.71390600  0.75119300  1
  P  P32  1  0.00001400  0.28610800  0.75119300  1
  P  P33  1  0.33112467  0.37530533  0.91606233  1
  P  P34  1  0.62469467  0.95581933  0.91606233  1
  P  P35  1  0.04418067  0.66887533  0.91606233  1
  O  O36  1  0.46636400  0.14367800  0.02204200  1
  O  O37  1  0.67731400  0.53363600  0.02204200  1
  O  O38  1  0.85632200  0.32268600  0.02204200  1
  O  O39  1  0.97654300  0.16256000  0.07925400  1
  O  O40  1  0.86432233  0.34417167  0.14552667  1
  O  O41  1  0.14748200  0.50605600  0.08763800  1
  O  O42  1  0.18601700  0.02345700  0.07925400  1
  O  O43  1  0.35857400  0.85251800  0.08763800  1
  O  O44  1  0.01109300  0.81097100  0.18835200  1
  O  O45  1  0.49394400  0.64142600  0.08763800  1
  O  O46  1  0.82608433  0.51651067  0.25318267  1
  O  O47  1  0.18902900  0.20012200  0.18835200  1
  O  O48  1  0.47984933  0.13567767  0.14552667  1
  O  O49  1  0.83744000  0.81398300  0.07925400  1
  O  O50  1  0.17088833  0.68924467  0.24571667  1
  O  O51  1  0.65582833  0.52015067  0.14552667  1
  O  O52  1  0.31075533  0.48164367  0.24571667  1
  O  O53  1  0.48348933  0.30957367  0.25318267  1
  O  O54  1  0.51835633  0.82911167  0.24571667  1
  O  O55  1  0.79987800  0.98890700  0.18835200  1
  O  O56  1  0.69042633  0.17391567  0.25318267  1
  O  O57  1  0.81011233  0.01062367  0.31106967  1
  O  O58  1  0.98937633  0.79948867  0.31106967  1
  O  O59  1  0.20051133  0.18988767  0.31106967  1
  O  O60  1  0.13303067  0.47701133  0.35537533  1
  O  O61  1  0.34398067  0.86696933  0.35537533  1
  O  O62  1  0.52298867  0.65601933  0.35537533  1
  O  O63  1  0.64320967  0.49589333  0.41258733  1
  O  O64  1  0.53098900  0.67750500  0.47886000  1
  O  O65  1  0.81414867  0.83938933  0.42097133  1
  O  O66  1  0.85268367  0.35679033  0.41258733  1
  O  O67  1  0.02524067  0.18585133  0.42097133  1
  O  O68  1  0.67775967  0.14430433  0.52168533  1
  O  O69  1  0.16061067  0.97475933  0.42097133  1
  O  O70  1  0.49275100  0.84984400  0.58651600  1
  O  O71  1  0.85569567  0.53345533  0.52168533  1
  O  O72  1  0.14651600  0.46901100  0.47886000  1
  O  O73  1  0.50410667  0.14731633  0.41258733  1
  O  O74  1  0.83755500  0.02257800  0.57905000  1
  O  O75  1  0.32249500  0.85348400  0.47886000  1
  O  O76  1  0.97742200  0.81497700  0.57905000  1
  O  O77  1  0.15015600  0.64290700  0.58651600  1
  O  O78  1  0.18502300  0.16244500  0.57905000  1
  O  O79  1  0.46654467  0.32224033  0.52168533  1
  O  O80  1  0.35709300  0.50724900  0.58651600  1
  O  O81  1  0.47677900  0.34395700  0.64440300  1
  O  O82  1  0.65604300  0.13282200  0.64440300  1
  O  O83  1  0.86717800  0.52322100  0.64440300  1
  O  O84  1  0.79969733  0.81034467  0.68870867  1
  O  O85  1  0.01064733  0.20030267  0.68870867  1
  O  O86  1  0.18965533  0.98935267  0.68870867  1
  O  O87  1  0.30987633  0.82922667  0.74592067  1
  O  O88  1  0.19765567  0.01083833  0.81219333  1
  O  O89  1  0.48081533  0.17272267  0.75430467  1
  O  O90  1  0.51935033  0.69012367  0.74592067  1
  O  O91  1  0.69190733  0.51918467  0.75430467  1
  O  O92  1  0.34442633  0.47763767  0.85501867  1
  O  O93  1  0.82727733  0.30809267  0.75430467  1
  O  O94  1  0.15941767  0.18317733  0.91984933  1
  O  O95  1  0.52236233  0.86678867  0.85501867  1
  O  O96  1  0.81318267  0.80234433  0.81219333  1
  O  O97  1  0.17077333  0.48064967  0.74592067  1
  O  O98  1  0.50422167  0.35591133  0.91238333  1
  O  O99  1  0.98916167  0.18681733  0.81219333  1
  O  O100  1  0.64408867  0.14831033  0.91238333  1
  O  O101  1  0.81682267  0.97624033  0.91984933  1
  O  O102  1  0.85168967  0.49577833  0.91238333  1
  O  O103  1  0.13321133  0.65557367  0.85501867  1
  O  O104  1  0.02375967  0.84058233  0.91984933  1
  O  O105  1  0.14344567  0.67729033  0.97773633  1
  O  O106  1  0.32270967  0.46615533  0.97773633  1
  O  O107  1  0.53384467  0.85655433  0.97773633  1
