# generated using pymatgen
data_VO2F
_symmetry_space_group_name_H-M   'P 1'
_cell_length_a   5.17387682
_cell_length_b   5.17387682
_cell_length_c   13.00701200
_cell_angle_alpha   90.00000000
_cell_angle_beta   90.00000000
_cell_angle_gamma   120.00000000
_symmetry_Int_Tables_number   1
_chemical_formula_structural   VO2F
_chemical_formula_sum   'V6 O12 F6'
_cell_volume   301.53681437
_cell_formula_units_Z   6
loop_
 _symmetry_equiv_pos_site_id
 _symmetry_equiv_pos_as_xyz
  1  'x, y, z'
loop_
 _atom_site_type_symbol
 _atom_site_label
 _atom_site_symmetry_multiplicity
 _atom_site_fract_x
 _atom_site_fract_y
 _atom_site_fract_z
 _atom_site_occupancy
  V  V0  1  0.64062333  0.59722667  0.50221600  1
  V  V1  1  0.65256833  0.70426367  0.00245800  1
  V  V2  1  0.95660333  0.35937667  0.16888267  1
  V  V3  1  0.29573633  0.94830467  0.33579133  1
  V  V4  1  0.05169533  0.34743167  0.66912467  1
  V  V5  1  0.40277333  0.04339667  0.83554933  1
  O  O6  1  0.66591333  0.25218967  0.24711700  1
  O  O7  1  0.74781033  0.41372367  0.58045033  1
  O  O8  1  0.91420633  0.57469167  0.08152600  1
  O  O9  1  0.00562933  0.76056867  0.41654300  1
  O  O10  1  0.66048533  0.08579367  0.74819267  1
  O  O11  1  0.23943133  0.24506067  0.74987633  1
  O  O12  1  0.75493933  0.99437067  0.08320967  1
  O  O13  1  0.42530833  0.33951467  0.41485933  1
  O  O14  1  0.25444233  0.67102767  0.25077700  1
  O  O15  1  0.58627633  0.33408667  0.91378367  1
  O  O16  1  0.32897233  0.58341467  0.58411033  1
  O  O17  1  0.41658533  0.74555767  0.91744367  1
  F  F18  1  0.08882533  0.07979867  0.24995500  1
  F  F19  1  0.99097333  0.91117467  0.91662167  1
  F  F20  1  0.06878333  0.65884567  0.74940800  1
  F  F21  1  0.92020133  0.00902667  0.58328833  1
  F  F22  1  0.34115433  0.40993767  0.08274133  1
  F  F23  1  0.59006233  0.93121667  0.41607467  1
