# generated using pymatgen
data_Li3MnV(PO4)3
_symmetry_space_group_name_H-M   'P 1'
_cell_length_a   8.48381432
_cell_length_b   8.48381432
_cell_length_c   22.71743971
_cell_angle_alpha   90.00000000
_cell_angle_beta   90.00000000
_cell_angle_gamma   120.00000000
_symmetry_Int_Tables_number   1
_chemical_formula_structural   Li3MnV(PO4)3
_chemical_formula_sum   'Li18 Mn6 V6 P18 O72'
_cell_volume   1416.02957836
_cell_formula_units_Z   6
loop_
 _symmetry_equiv_pos_site_id
 _symmetry_equiv_pos_as_xyz
  1  'x, y, z'
loop_
 _atom_site_type_symbol
 _atom_site_label
 _atom_site_symmetry_multiplicity
 _atom_site_fract_x
 _atom_site_fract_y
 _atom_site_fract_z
 _atom_site_occupancy
  Li  Li0  1  0.02923933  0.71342367  0.04973967  1
  Li  Li1  1  0.28657633  0.31581567  0.04973967  1
  Li  Li2  1  0.68418433  0.97076067  0.04973967  1
  Li  Li3  1  0.97970167  0.36082233  0.28333933  1
  Li  Li4  1  0.38112067  0.02029833  0.28333933  1
  Li  Li5  1  0.63917767  0.61887933  0.28333933  1
  Li  Li6  1  0.69590600  0.04675700  0.38307300  1
  Li  Li7  1  0.95324300  0.64914900  0.38307300  1
  Li  Li8  1  0.35085100  0.30409400  0.38307300  1
  Li  Li9  1  0.64636833  0.69415567  0.61667267  1
  Li  Li10  1  0.04778733  0.35363167  0.61667267  1
  Li  Li11  1  0.30584433  0.95221267  0.61667267  1
  Li  Li12  1  0.36257267  0.38009033  0.71640633  1
  Li  Li13  1  0.61990967  0.98248233  0.71640633  1
  Li  Li14  1  0.01751767  0.63742733  0.71640633  1
  Li  Li15  1  0.31303500  0.02748900  0.95000600  1
  Li  Li16  1  0.71445400  0.68696500  0.95000600  1
  Li  Li17  1  0.97251100  0.28554600  0.95000600  1
  Mn  Mn18  1  0.33333333  0.66666667  0.01426667  1
  Mn  Mn19  1  0.66666667  0.33333333  0.18748433  1
  Mn  Mn20  1  0.00000000  0.00000000  0.34760000  1
  Mn  Mn21  1  0.33333333  0.66666667  0.52081767  1
  Mn  Mn22  1  0.66666667  0.33333333  0.68093333  1
  Mn  Mn23  1  0.00000000  0.00000000  0.85415100  1
  V  V24  1  0.00000000  0.00000000  0.14650600  1
  V  V25  1  0.33333333  0.66666667  0.31773167  1
  V  V26  1  0.66666667  0.33333333  0.47983933  1
  V  V27  1  0.00000000  0.00000000  0.65106500  1
  V  V28  1  0.33333333  0.66666667  0.81317267  1
  V  V29  1  0.66666667  0.33333333  0.98439833  1
  P  P30  1  0.66602300  0.62344400  0.08348700  1
  P  P31  1  0.95742100  0.33397700  0.08348700  1
  P  P32  1  0.37655600  0.04257900  0.08348700  1
  P  P33  1  0.29076633  0.29153267  0.25005567  1
  P  P34  1  0.70846733  0.99923367  0.25005567  1
  P  P35  1  0.00076633  0.70923367  0.25005567  1
  P  P36  1  0.33268967  0.95677733  0.41682033  1
  P  P37  1  0.62408767  0.66731033  0.41682033  1
  P  P38  1  0.04322267  0.37591233  0.41682033  1
  P  P39  1  0.95743300  0.62486600  0.58338900  1
  P  P40  1  0.37513400  0.33256700  0.58338900  1
  P  P41  1  0.66743300  0.04256700  0.58338900  1
  P  P42  1  0.99935633  0.29011067  0.75015367  1
  P  P43  1  0.29075433  0.00064367  0.75015367  1
  P  P44  1  0.70988933  0.70924567  0.75015367  1
  P  P45  1  0.62409967  0.95819933  0.91672233  1
  P  P46  1  0.04180067  0.66590033  0.91672233  1
  P  P47  1  0.33409967  0.37590033  0.91672233  1
  O  O48  1  0.75878633  0.56998167  0.03239467  1
  O  O49  1  0.47191400  0.57276000  0.06484600  1
  O  O50  1  0.10084600  0.52808600  0.06484600  1
  O  O51  1  0.81119533  0.24121367  0.03239467  1
  O  O52  1  0.43001833  0.18880467  0.03239467  1
  O  O53  1  0.66135433  0.53005467  0.14056667  1
  O  O54  1  0.04348333  0.20861067  0.08935467  1
  O  O55  1  0.86870033  0.33864567  0.14056667  1
  O  O56  1  0.42724000  0.89915400  0.06484600  1
  O  O57  1  0.16512733  0.95651667  0.08935467  1
  O  O58  1  0.46994533  0.13129967  0.14056667  1
  O  O59  1  0.79138933  0.83487267  0.08935467  1
  O  O60  1  0.88512233  0.50060867  0.24440167  1
  O  O61  1  0.19106200  0.19580500  0.19314400  1
  O  O62  1  0.49939133  0.38451367  0.24440167  1
  O  O63  1  0.23623900  0.43447300  0.26821200  1
  O  O64  1  0.80419500  0.99525700  0.19314400  1
  O  O65  1  0.61548633  0.11487767  0.24440167  1
  O  O66  1  0.00474300  0.80893800  0.19314400  1
  O  O67  1  0.24222833  0.14874867  0.30068767  1
  O  O68  1  0.85125133  0.09347967  0.30068767  1
  O  O69  1  0.56552700  0.80176600  0.26821200  1
  O  O70  1  0.19823400  0.76376100  0.26821200  1
  O  O71  1  0.90652033  0.75777167  0.30068767  1
  O  O72  1  0.42545300  0.90331500  0.36572800  1
  O  O73  1  0.13858067  0.90609333  0.39817933  1
  O  O74  1  0.76751267  0.86141933  0.39817933  1
  O  O75  1  0.47786200  0.57454700  0.36572800  1
  O  O76  1  0.09668500  0.52213800  0.36572800  1
  O  O77  1  0.32802100  0.86338800  0.47390000  1
  O  O78  1  0.71015000  0.54194400  0.42268800  1
  O  O79  1  0.53536700  0.67197900  0.47390000  1
  O  O80  1  0.09390667  0.23248733  0.39817933  1
  O  O81  1  0.83179400  0.28985000  0.42268800  1
  O  O82  1  0.13661200  0.46463300  0.47390000  1
  O  O83  1  0.45805600  0.16820600  0.42268800  1
  O  O84  1  0.55178900  0.83394200  0.57773500  1
  O  O85  1  0.85772867  0.52913833  0.52647733  1
  O  O86  1  0.16605800  0.71784700  0.57773500  1
  O  O87  1  0.90290567  0.76780633  0.60154533  1
  O  O88  1  0.47086167  0.32859033  0.52647733  1
  O  O89  1  0.28215300  0.44821100  0.57773500  1
  O  O90  1  0.67140967  0.14227133  0.52647733  1
  O  O91  1  0.90889500  0.48208200  0.63402100  1
  O  O92  1  0.51791800  0.42681300  0.63402100  1
  O  O93  1  0.23219367  0.13509933  0.60154533  1
  O  O94  1  0.86490067  0.09709433  0.60154533  1
  O  O95  1  0.57318700  0.09110500  0.63402100  1
  O  O96  1  0.09211967  0.23664833  0.69906133  1
  O  O97  1  0.80524733  0.23942667  0.73151267  1
  O  O98  1  0.43417933  0.19475267  0.73151267  1
  O  O99  1  0.14452867  0.90788033  0.69906133  1
  O  O100  1  0.76335167  0.85547133  0.69906133  1
  O  O101  1  0.99468767  0.19672133  0.80723333  1
  O  O102  1  0.37681667  0.87527733  0.75602133  1
  O  O103  1  0.20203367  0.00531233  0.80723333  1
  O  O104  1  0.76057333  0.56582067  0.73151267  1
  O  O105  1  0.49846067  0.62318333  0.75602133  1
  O  O106  1  0.80327867  0.79796633  0.80723333  1
  O  O107  1  0.12472267  0.50153933  0.75602133  1
  O  O108  1  0.21845567  0.16727533  0.91106833  1
  O  O109  1  0.52439533  0.86247167  0.85981067  1
  O  O110  1  0.83272467  0.05118033  0.91106833  1
  O  O111  1  0.56957233  0.10113967  0.93487867  1
  O  O112  1  0.13752833  0.66192367  0.85981067  1
  O  O113  1  0.94881967  0.78154433  0.91106833  1
  O  O114  1  0.33807633  0.47560467  0.85981067  1
  O  O115  1  0.57556167  0.81541533  0.96735433  1
  O  O116  1  0.18458467  0.76014633  0.96735433  1
  O  O117  1  0.89886033  0.46843267  0.93487867  1
  O  O118  1  0.53156733  0.43042767  0.93487867  1
  O  O119  1  0.23985367  0.42443833  0.96735433  1
