# generated using pymatgen
data_Li3Ti3(PO4)4
_symmetry_space_group_name_H-M   'P 1'
_cell_length_a   19.29792200
_cell_length_b   6.45598800
_cell_length_c   10.71357675
_cell_angle_alpha   90.00000000
_cell_angle_beta   91.32038914
_cell_angle_gamma   90.00000000
_symmetry_Int_Tables_number   1
_chemical_formula_structural   Li3Ti3(PO4)4
_chemical_formula_sum   'Li12 Ti12 P16 O64'
_cell_volume   1334.41960489
_cell_formula_units_Z   4
loop_
 _symmetry_equiv_pos_site_id
 _symmetry_equiv_pos_as_xyz
  1  'x, y, z'
loop_
 _atom_site_type_symbol
 _atom_site_label
 _atom_site_symmetry_multiplicity
 _atom_site_fract_x
 _atom_site_fract_y
 _atom_site_fract_z
 _atom_site_occupancy
  Li  Li0  1  0.93116050  0.13943050  0.52886500  1
  Li  Li1  1  0.93116050  0.86056950  0.02886500  1
  Li  Li2  1  0.56883950  0.63943050  0.97113500  1
  Li  Li3  1  0.56883950  0.36056950  0.47113500  1
  Li  Li4  1  0.00000000  0.59062800  0.75000000  1
  Li  Li5  1  0.00000000  0.40937200  0.25000000  1
  Li  Li6  1  0.43116050  0.63943050  0.52886500  1
  Li  Li7  1  0.43116050  0.36056950  0.02886500  1
  Li  Li8  1  0.06883950  0.13943050  0.97113500  1
  Li  Li9  1  0.06883950  0.86056950  0.47113500  1
  Li  Li10  1  0.50000000  0.09062800  0.75000000  1
  Li  Li11  1  0.50000000  0.90937200  0.25000000  1
  Ti  Ti12  1  0.84541400  0.47957700  0.75151900  1
  Ti  Ti13  1  0.84541400  0.52042300  0.25151900  1
  Ti  Ti14  1  0.75000000  0.25000000  0.00000000  1
  Ti  Ti15  1  0.75000000  0.75000000  0.50000000  1
  Ti  Ti16  1  0.65458600  0.97957700  0.74848100  1
  Ti  Ti17  1  0.65458600  0.02042300  0.24848100  1
  Ti  Ti18  1  0.34541400  0.97957700  0.75151900  1
  Ti  Ti19  1  0.34541400  0.02042300  0.25151900  1
  Ti  Ti20  1  0.25000000  0.75000000  0.00000000  1
  Ti  Ti21  1  0.25000000  0.25000000  0.50000000  1
  Ti  Ti22  1  0.15458600  0.47957700  0.74848100  1
  Ti  Ti23  1  0.15458600  0.52042300  0.24848100  1
  P  P24  1  0.91979750  0.66381850  0.50827700  1
  P  P25  1  0.91979750  0.33618150  0.00827700  1
  P  P26  1  0.80119400  0.98209600  0.75641500  1
  P  P27  1  0.80119400  0.01790400  0.25641500  1
  P  P28  1  0.69880600  0.48209600  0.74358500  1
  P  P29  1  0.69880600  0.51790400  0.24358500  1
  P  P30  1  0.58020250  0.16381850  0.99172300  1
  P  P31  1  0.58020250  0.83618150  0.49172300  1
  P  P32  1  0.41979750  0.16381850  0.50827700  1
  P  P33  1  0.41979750  0.83618150  0.00827700  1
  P  P34  1  0.30119400  0.48209600  0.75641500  1
  P  P35  1  0.30119400  0.51790400  0.25641500  1
  P  P36  1  0.19880600  0.98209600  0.74358500  1
  P  P37  1  0.19880600  0.01790400  0.24358500  1
  P  P38  1  0.08020250  0.66381850  0.99172300  1
  P  P39  1  0.08020250  0.33618150  0.49172300  1
  O  O40  1  0.98243850  0.79801650  0.53842700  1
  O  O41  1  0.98243850  0.20198350  0.03842700  1
  O  O42  1  0.92301750  0.45255550  0.87992100  1
  O  O43  1  0.91418300  0.49288800  0.61333800  1
  O  O44  1  0.92301750  0.54744450  0.37992100  1
  O  O45  1  0.91418300  0.50711200  0.11333800  1
  O  O46  1  0.85371450  0.80214150  0.50739000  1
  O  O47  1  0.84540450  0.79168750  0.78810000  1
  O  O48  1  0.85371450  0.19785850  0.00739000  1
  O  O49  1  0.84627700  0.16696900  0.72252700  1
  O  O50  1  0.84540450  0.20831250  0.28810000  1
  O  O51  1  0.84627700  0.83303100  0.22252700  1
  O  O52  1  0.75298400  0.52426300  0.63750800  1
  O  O53  1  0.75428100  0.44554300  0.85335000  1
  O  O54  1  0.75298400  0.47573700  0.13750800  1
  O  O55  1  0.75428100  0.55445700  0.35335000  1
  O  O56  1  0.74571900  0.94554300  0.64665000  1
  O  O57  1  0.74701600  0.02426300  0.86249200  1
  O  O58  1  0.74571900  0.05445700  0.14665000  1
  O  O59  1  0.74701600  0.97573700  0.36249200  1
  O  O60  1  0.65372300  0.66696900  0.77747300  1
  O  O61  1  0.65459550  0.29168750  0.71190000  1
  O  O62  1  0.65372300  0.33303100  0.27747300  1
  O  O63  1  0.64628550  0.30214150  0.99261000  1
  O  O64  1  0.65459550  0.70831250  0.21190000  1
  O  O65  1  0.64628550  0.69785850  0.49261000  1
  O  O66  1  0.58581700  0.99288800  0.88666200  1
  O  O67  1  0.57698250  0.95255550  0.62007900  1
  O  O68  1  0.58581700  0.00711200  0.38666200  1
  O  O69  1  0.57698250  0.04744450  0.12007900  1
  O  O70  1  0.51756150  0.29801650  0.96157300  1
  O  O71  1  0.51756150  0.70198350  0.46157300  1
  O  O72  1  0.48243850  0.29801650  0.53842700  1
  O  O73  1  0.48243850  0.70198350  0.03842700  1
  O  O74  1  0.42301750  0.95255550  0.87992100  1
  O  O75  1  0.41418300  0.99288800  0.61333800  1
  O  O76  1  0.42301750  0.04744450  0.37992100  1
  O  O77  1  0.41418300  0.00711200  0.11333800  1
  O  O78  1  0.35371450  0.30214150  0.50739000  1
  O  O79  1  0.34540450  0.29168750  0.78810000  1
  O  O80  1  0.35371450  0.69785850  0.00739000  1
  O  O81  1  0.34627700  0.66696900  0.72252700  1
  O  O82  1  0.34540450  0.70831250  0.28810000  1
  O  O83  1  0.34627700  0.33303100  0.22252700  1
  O  O84  1  0.25298400  0.02426300  0.63750800  1
  O  O85  1  0.25428100  0.94554300  0.85335000  1
  O  O86  1  0.25298400  0.97573700  0.13750800  1
  O  O87  1  0.25428100  0.05445700  0.35335000  1
  O  O88  1  0.24571900  0.44554300  0.64665000  1
  O  O89  1  0.24701600  0.52426300  0.86249200  1
  O  O90  1  0.24571900  0.55445700  0.14665000  1
  O  O91  1  0.24701600  0.47573700  0.36249200  1
  O  O92  1  0.15372300  0.16696900  0.77747300  1
  O  O93  1  0.15459550  0.79168750  0.71190000  1
  O  O94  1  0.15372300  0.83303100  0.27747300  1
  O  O95  1  0.14628550  0.80214150  0.99261000  1
  O  O96  1  0.15459550  0.20831250  0.21190000  1
  O  O97  1  0.14628550  0.19785850  0.49261000  1
  O  O98  1  0.08581700  0.49288800  0.88666200  1
  O  O99  1  0.07698250  0.45255550  0.62007900  1
  O  O100  1  0.08581700  0.50711200  0.38666200  1
  O  O101  1  0.07698250  0.54744450  0.12007900  1
  O  O102  1  0.01756150  0.79801650  0.96157300  1
  O  O103  1  0.01756150  0.20198350  0.46157300  1
