# generated using pymatgen
data_LiV(PO3)4
_symmetry_space_group_name_H-M   'P 1'
_cell_length_a   7.28663200
_cell_length_b   8.47870000
_cell_length_c   7.77437895
_cell_angle_alpha   90.00000000
_cell_angle_beta   93.29469556
_cell_angle_gamma   90.00000000
_symmetry_Int_Tables_number   1
_chemical_formula_structural   LiV(PO3)4
_chemical_formula_sum   'Li2 V2 P8 O24'
_cell_volume   479.51631729
_cell_formula_units_Z   2
loop_
 _symmetry_equiv_pos_site_id
 _symmetry_equiv_pos_as_xyz
  1  'x, y, z'
loop_
 _atom_site_type_symbol
 _atom_site_label
 _atom_site_symmetry_multiplicity
 _atom_site_fract_x
 _atom_site_fract_y
 _atom_site_fract_z
 _atom_site_occupancy
  Li  Li0  1  0.25768800  0.30442100  0.85711300  1
  Li  Li1  1  0.74231200  0.80442100  0.14288700  1
  V  V2  1  0.25717200  0.50402400  0.33175100  1
  V  V3  1  0.74282800  0.00402400  0.66824900  1
  P  P4  1  0.08676000  0.71008100  0.97443900  1
  P  P5  1  0.06487800  0.12070300  0.37353300  1
  P  P6  1  0.35164900  0.92997500  0.80740600  1
  P  P7  1  0.36928900  0.87432100  0.44399000  1
  P  P8  1  0.63071100  0.37432100  0.55601000  1
  P  P9  1  0.64835100  0.42997500  0.19259400  1
  P  P10  1  0.93512200  0.62070300  0.62646700  1
  P  P11  1  0.91324000  0.21008100  0.02556100  1
  O  O12  1  0.06540900  0.60077800  0.80081600  1
  O  O13  1  0.05036200  0.57707200  0.48098400  1
  O  O14  1  0.26634300  0.08847800  0.80526100  1
  O  O15  1  0.07590800  0.31352600  0.01611700  1
  O  O16  1  0.16096700  0.27687300  0.38057000  1
  O  O17  1  0.27248800  0.80944600  0.94348700  1
  O  O18  1  0.13615000  0.60295600  0.12161000  1
  O  O19  1  0.21367200  0.98181300  0.34583300  1
  O  O20  1  0.29107500  0.83798800  0.62823700  1
  O  O21  1  0.38042400  0.72358500  0.34536400  1
  O  O22  1  0.55884500  0.91683700  0.83660500  1
  O  O23  1  0.45091200  0.46345300  0.53540700  1
  O  O24  1  0.54908800  0.96345300  0.46459300  1
  O  O25  1  0.44115500  0.41683700  0.16339500  1
  O  O26  1  0.61957600  0.22358500  0.65463600  1
  O  O27  1  0.70892500  0.33798800  0.37176300  1
  O  O28  1  0.78632800  0.48181300  0.65416700  1
  O  O29  1  0.86385000  0.10295600  0.87839000  1
  O  O30  1  0.72751200  0.30944600  0.05651300  1
  O  O31  1  0.83903300  0.77687300  0.61943000  1
  O  O32  1  0.92409200  0.81352600  0.98388300  1
  O  O33  1  0.73365700  0.58847800  0.19473900  1
  O  O34  1  0.94963800  0.07707200  0.51901600  1
  O  O35  1  0.93459100  0.10077800  0.19918400  1
