# generated using pymatgen
data_Ce2TiO5
_symmetry_space_group_name_H-M   'P 1'
_cell_length_a   12.30098800
_cell_length_b   5.34156200
_cell_length_c   7.69089590
_cell_angle_alpha   90.00000000
_cell_angle_beta   115.04332640
_cell_angle_gamma   90.00000000
_symmetry_Int_Tables_number   1
_chemical_formula_structural   Ce2TiO5
_chemical_formula_sum   'Ce8 Ti4 O20'
_cell_volume   457.83355815
_cell_formula_units_Z   4
loop_
 _symmetry_equiv_pos_site_id
 _symmetry_equiv_pos_as_xyz
  1  'x, y, z'
loop_
 _atom_site_type_symbol
 _atom_site_label
 _atom_site_symmetry_multiplicity
 _atom_site_fract_x
 _atom_site_fract_y
 _atom_site_fract_z
 _atom_site_occupancy
  Ce  Ce0  1  0.35923000  0.97601400  0.73194800  1
  Ce  Ce1  1  0.35923000  0.02398600  0.23194800  1
  Ce  Ce2  1  0.14077000  0.47601400  0.76805200  1
  Ce  Ce3  1  0.14077000  0.52398600  0.26805200  1
  Ce  Ce4  1  0.85923000  0.47601400  0.73194800  1
  Ce  Ce5  1  0.85923000  0.52398600  0.23194800  1
  Ce  Ce6  1  0.64077000  0.97601400  0.76805200  1
  Ce  Ce7  1  0.64077000  0.02398600  0.26805200  1
  Ti  Ti8  1  0.00000000  0.00000000  0.50000000  1
  Ti  Ti9  1  0.00000000  0.00000000  0.00000000  1
  Ti  Ti10  1  0.50000000  0.50000000  0.50000000  1
  Ti  Ti11  1  0.50000000  0.50000000  0.00000000  1
  O  O12  1  0.16660350  0.84554850  0.63880200  1
  O  O13  1  0.16660350  0.15445150  0.13880200  1
  O  O14  1  0.42946350  0.18115350  0.54086000  1
  O  O15  1  0.00000000  0.15292900  0.75000000  1
  O  O16  1  0.07053650  0.68115350  0.95914000  1
  O  O17  1  0.42946350  0.81884650  0.04086000  1
  O  O18  1  0.00000000  0.84707100  0.25000000  1
  O  O19  1  0.07053650  0.31884650  0.45914000  1
  O  O20  1  0.33339650  0.34554850  0.86119800  1
  O  O21  1  0.33339650  0.65445150  0.36119800  1
  O  O22  1  0.66660350  0.34554850  0.63880200  1
  O  O23  1  0.66660350  0.65445150  0.13880200  1
  O  O24  1  0.92946350  0.68115350  0.54086000  1
  O  O25  1  0.50000000  0.65292900  0.75000000  1
  O  O26  1  0.57053650  0.18115350  0.95914000  1
  O  O27  1  0.92946350  0.31884650  0.04086000  1
  O  O28  1  0.50000000  0.34707100  0.25000000  1
  O  O29  1  0.57053650  0.81884650  0.45914000  1
  O  O30  1  0.83339650  0.84554850  0.86119800  1
  O  O31  1  0.83339650  0.15445150  0.36119800  1
