# generated using pymatgen
data_LiFe(CO3)2
_symmetry_space_group_name_H-M   'P 1'
_cell_length_a   5.59061200
_cell_length_b   10.98808400
_cell_length_c   8.30347605
_cell_angle_alpha   90.00000000
_cell_angle_beta   106.33269702
_cell_angle_gamma   90.00000000
_symmetry_Int_Tables_number   1
_chemical_formula_structural   LiFe(CO3)2
_chemical_formula_sum   'Li4 Fe4 C8 O24'
_cell_volume   489.49904680
_cell_formula_units_Z   4
loop_
 _symmetry_equiv_pos_site_id
 _symmetry_equiv_pos_as_xyz
  1  'x, y, z'
loop_
 _atom_site_type_symbol
 _atom_site_label
 _atom_site_symmetry_multiplicity
 _atom_site_fract_x
 _atom_site_fract_y
 _atom_site_fract_z
 _atom_site_occupancy
  Li  Li0  1  0.13178900  0.58634500  0.34404400  1
  Li  Li1  1  0.63178900  0.91365500  0.84404400  1
  Li  Li2  1  0.63178900  0.08634500  0.34404400  1
  Li  Li3  1  0.13178900  0.41365500  0.84404400  1
  Fe  Fe4  1  0.03728600  0.86672800  0.49998500  1
  Fe  Fe5  1  0.53728600  0.63327200  0.99998500  1
  Fe  Fe6  1  0.53728600  0.36672800  0.49998500  1
  Fe  Fe7  1  0.03728600  0.13327200  0.99998500  1
  C  C8  1  0.78145700  0.83378400  0.21031900  1
  C  C9  1  0.57352200  0.57647800  0.29476300  1
  C  C10  1  0.28145700  0.66621600  0.71031900  1
  C  C11  1  0.07352200  0.92352200  0.79476300  1
  C  C12  1  0.28145700  0.33378400  0.21031900  1
  C  C13  1  0.07352200  0.07647800  0.29476300  1
  C  C14  1  0.78145700  0.16621600  0.71031900  1
  C  C15  1  0.57352200  0.42352200  0.79476300  1
  O  O16  1  0.65234850  0.80745050  0.05746000  1
  O  O17  1  0.02194700  0.81986000  0.25940400  1
  O  O18  1  0.76911200  0.58907100  0.24166600  1
  O  O19  1  0.36039150  0.60316750  0.18608500  1
  O  O20  1  0.58228650  0.54084150  0.44358800  1
  O  O21  1  0.67934950  0.87351750  0.32294600  1
  O  O22  1  0.15234850  0.69254950  0.55746000  1
  O  O23  1  0.26911200  0.91092900  0.74166600  1
  O  O24  1  0.17934950  0.62648250  0.82294600  1
  O  O25  1  0.52194700  0.68014000  0.75940400  1
  O  O26  1  0.86039150  0.89683250  0.68608500  1
  O  O27  1  0.08228650  0.95915850  0.94358800  1
  O  O28  1  0.15234850  0.30745050  0.05746000  1
  O  O29  1  0.52194700  0.31986000  0.25940400  1
  O  O30  1  0.26911200  0.08907100  0.24166600  1
  O  O31  1  0.86039150  0.10316750  0.18608500  1
  O  O32  1  0.08228650  0.04084150  0.44358800  1
  O  O33  1  0.17934950  0.37351750  0.32294600  1
  O  O34  1  0.65234850  0.19254950  0.55746000  1
  O  O35  1  0.76911200  0.41092900  0.74166600  1
  O  O36  1  0.67934950  0.12648250  0.82294600  1
  O  O37  1  0.02194700  0.18014000  0.75940400  1
  O  O38  1  0.36039150  0.39683250  0.68608500  1
  O  O39  1  0.58228650  0.45915850  0.94358800  1
