# generated using pymatgen
data_V2O3F
_symmetry_space_group_name_H-M   'P 1'
_cell_length_a   8.81589200
_cell_length_b   6.87027400
_cell_length_c   7.09110306
_cell_angle_alpha   90.00000000
_cell_angle_beta   111.47030325
_cell_angle_gamma   90.00000000
_symmetry_Int_Tables_number   1
_chemical_formula_structural   V2O3F
_chemical_formula_sum   'V12 O18 F6'
_cell_volume   399.68754886
_cell_formula_units_Z   6
loop_
 _symmetry_equiv_pos_site_id
 _symmetry_equiv_pos_as_xyz
  1  'x, y, z'
loop_
 _atom_site_type_symbol
 _atom_site_label
 _atom_site_symmetry_multiplicity
 _atom_site_fract_x
 _atom_site_fract_y
 _atom_site_fract_z
 _atom_site_occupancy
  V  V0  1  0.83320900  0.49621500  0.83317900  1
  V  V1  1  0.16714150  0.53980150  0.66738900  1
  V  V2  1  0.83285850  0.53980150  0.33261100  1
  V  V3  1  0.16679100  0.49621500  0.16682100  1
  V  V4  1  0.00000000  0.99483800  0.50000000  1
  V  V5  1  0.00000000  0.95293900  0.00000000  1
  V  V6  1  0.33320900  0.99621500  0.83317900  1
  V  V7  1  0.66714150  0.03980150  0.66738900  1
  V  V8  1  0.33285850  0.03980150  0.33261100  1
  V  V9  1  0.66679100  0.99621500  0.16682100  1
  V  V10  1  0.50000000  0.49483800  0.50000000  1
  V  V11  1  0.50000000  0.45293900  0.00000000  1
  O  O12  1  0.26968500  0.49667100  0.96186400  1
  O  O13  1  0.93581550  0.49936450  0.62854000  1
  O  O14  1  0.60157800  0.50012600  0.29429300  1
  O  O15  1  0.39842200  0.50012600  0.70570700  1
  O  O16  1  0.73031500  0.49667100  0.03813600  1
  O  O17  1  0.06418450  0.49936450  0.37146000  1
  O  O18  1  0.16638200  0.80117800  0.66740400  1
  O  O19  1  0.83361800  0.80117800  0.33259600  1
  O  O20  1  0.00000000  0.69209400  0.00000000  1
  O  O21  1  0.76968500  0.99667100  0.96186400  1
  O  O22  1  0.43581550  0.99936450  0.62854000  1
  O  O23  1  0.10157800  0.00012600  0.29429300  1
  O  O24  1  0.89842200  0.00012600  0.70570700  1
  O  O25  1  0.23031500  0.99667100  0.03813600  1
  O  O26  1  0.56418450  0.99936450  0.37146000  1
  O  O27  1  0.66638200  0.30117800  0.66740400  1
  O  O28  1  0.33361800  0.30117800  0.33259600  1
  O  O29  1  0.50000000  0.19209400  0.00000000  1
  F  F30  1  0.16672400  0.19889500  0.66507600  1
  F  F31  1  0.83327600  0.19889500  0.33492400  1
  F  F32  1  0.00000000  0.29562700  0.00000000  1
  F  F33  1  0.66672400  0.69889500  0.66507600  1
  F  F34  1  0.33327600  0.69889500  0.33492400  1
  F  F35  1  0.50000000  0.79562700  0.00000000  1
