# generated using pymatgen
data_Li3Ti4O8
_symmetry_space_group_name_H-M   'P 1'
_cell_length_a   5.12622300
_cell_length_b   2.94573300
_cell_length_c   9.93246024
_cell_angle_alpha   90.00000000
_cell_angle_beta   92.43715211
_cell_angle_gamma   90.00000000
_symmetry_Int_Tables_number   1
_chemical_formula_structural   Li3Ti4O8
_chemical_formula_sum   'Li3 Ti4 O8'
_cell_volume   149.84929311
_cell_formula_units_Z   1
loop_
 _symmetry_equiv_pos_site_id
 _symmetry_equiv_pos_as_xyz
  1  'x, y, z'
loop_
 _atom_site_type_symbol
 _atom_site_label
 _atom_site_symmetry_multiplicity
 _atom_site_fract_x
 _atom_site_fract_y
 _atom_site_fract_z
 _atom_site_occupancy
  Li  Li0  1  0.41389900  0.00000000  0.08582300  1
  Li  Li1  1  0.57358100  0.50000000  0.90372900  1
  Li  Li2  1  0.92930700  0.50000000  0.45663900  1
  Ti  Ti3  1  0.05915100  0.00000000  0.85533200  1
  Ti  Ti4  1  0.45247100  0.00000000  0.36546100  1
  Ti  Ti5  1  0.53960400  0.50000000  0.63382000  1
  Ti  Ti6  1  0.93965700  0.50000000  0.13756300  1
  O  O7  1  0.16005800  0.00000000  0.22630500  1
  O  O8  1  0.22307900  0.50000000  0.98330700  1
  O  O9  1  0.29060600  0.50000000  0.47407300  1
  O  O10  1  0.36441200  0.00000000  0.74462000  1
  O  O11  1  0.66197700  0.50000000  0.27133200  1
  O  O12  1  0.71935000  0.00000000  0.52570700  1
  O  O13  1  0.76782700  0.00000000  0.01620700  1
  O  O14  1  0.84462300  0.50000000  0.77128100  1
