# generated using pymatgen
data_Li3Co3OF7
_symmetry_space_group_name_H-M   'P 1'
_cell_length_a   10.41066364
_cell_length_b   6.09859454
_cell_length_c   6.03806360
_cell_angle_alpha   90.00000000
_cell_angle_beta   124.56265749
_cell_angle_gamma   90.00000000
_symmetry_Int_Tables_number   1
_chemical_formula_structural   Li3Co3OF7
_chemical_formula_sum   'Li6 Co6 O2 F14'
_cell_volume   315.69868799
_cell_formula_units_Z   2
loop_
 _symmetry_equiv_pos_site_id
 _symmetry_equiv_pos_as_xyz
  1  'x, y, z'
loop_
 _atom_site_type_symbol
 _atom_site_label
 _atom_site_symmetry_multiplicity
 _atom_site_fract_x
 _atom_site_fract_y
 _atom_site_fract_z
 _atom_site_occupancy
  Li  Li0  1  0.38453900  0.00000000  0.64737900  1
  Li  Li1  1  0.99469350  0.00000000  0.00112700  1
  Li  Li2  1  0.37375725  0.00000000  0.11679450  1
  Li  Li3  1  0.88453900  0.50000000  0.64737900  1
  Li  Li4  1  0.49469350  0.50000000  0.00112700  1
  Li  Li5  1  0.87375725  0.50000000  0.11679450  1
  Co  Co6  1  0.74403825  0.00000000  0.21391250  1
  Co  Co7  1  0.62809325  0.24387225  0.64024050  1
  Co  Co8  1  0.62809325  0.75612775  0.64024050  1
  Co  Co9  1  0.24403825  0.50000000  0.21391250  1
  Co  Co10  1  0.12809325  0.74387225  0.64024050  1
  Co  Co11  1  0.12809325  0.25612775  0.64024050  1
  O  O12  1  0.61833400  0.00000000  0.83763900  1
  O  O13  1  0.11833400  0.50000000  0.83763900  1
  F  F14  1  0.13489775  0.00000000  0.88269650  1
  F  F15  1  0.12839825  0.00000000  0.40924050  1
  F  F16  1  0.61520950  0.00000000  0.36726100  1
  F  F17  1  0.38261575  0.23771225  0.37845550  1
  F  F18  1  0.38261575  0.76228775  0.37845550  1
  F  F19  1  0.36764175  0.23395125  0.86821150  1
  F  F20  1  0.36764175  0.76604875  0.86821150  1
  F  F21  1  0.63489775  0.50000000  0.88269650  1
  F  F22  1  0.62839825  0.50000000  0.40924050  1
  F  F23  1  0.11520950  0.50000000  0.36726100  1
  F  F24  1  0.88261575  0.73771225  0.37845550  1
  F  F25  1  0.88261575  0.26228775  0.37845550  1
  F  F26  1  0.86764175  0.73395125  0.86821150  1
  F  F27  1  0.86764175  0.26604875  0.86821150  1
