# generated using pymatgen
data_Li4V3Cr3(WO8)2
_symmetry_space_group_name_H-M   'P 1'
_cell_length_a   10.37379600
_cell_length_b   5.98293400
_cell_length_c   9.71618482
_cell_angle_alpha   90.00000000
_cell_angle_beta   90.08936230
_cell_angle_gamma   90.00000000
_symmetry_Int_Tables_number   1
_chemical_formula_structural   Li4V3Cr3(WO8)2
_chemical_formula_sum   'Li8 V6 Cr6 W4 O32'
_cell_volume   603.04143610
_cell_formula_units_Z   2
loop_
 _symmetry_equiv_pos_site_id
 _symmetry_equiv_pos_as_xyz
  1  'x, y, z'
loop_
 _atom_site_type_symbol
 _atom_site_label
 _atom_site_symmetry_multiplicity
 _atom_site_fract_x
 _atom_site_fract_y
 _atom_site_fract_z
 _atom_site_occupancy
  Li  Li0  1  0.66567700  0.00000000  0.90293100  1
  Li  Li1  1  0.50038400  0.50000000  0.99311900  1
  Li  Li2  1  0.50175900  0.50000000  0.49198000  1
  Li  Li3  1  0.83293600  0.50000000  0.39996400  1
  Li  Li4  1  0.16567700  0.50000000  0.90293100  1
  Li  Li5  1  0.00038400  0.00000000  0.99311900  1
  Li  Li6  1  0.00175900  0.00000000  0.49198000  1
  Li  Li7  1  0.33293600  0.00000000  0.39996400  1
  V  V8  1  0.83067900  0.00000000  0.21294700  1
  V  V9  1  0.91407600  0.74699800  0.71281500  1
  V  V10  1  0.91407600  0.25300200  0.71281500  1
  V  V11  1  0.33067900  0.50000000  0.21294700  1
  V  V12  1  0.41407600  0.24699800  0.71281500  1
  V  V13  1  0.41407600  0.75300200  0.71281500  1
  Cr  Cr14  1  0.58334450  0.24441850  0.21362400  1
  Cr  Cr15  1  0.58334450  0.75558150  0.21362400  1
  Cr  Cr16  1  0.66936800  0.50000000  0.71477100  1
  Cr  Cr17  1  0.08334450  0.74441850  0.21362400  1
  Cr  Cr18  1  0.08334450  0.25558150  0.21362400  1
  Cr  Cr19  1  0.16936800  0.00000000  0.71477100  1
  W  W20  1  0.66629400  0.00000000  0.48640600  1
  W  W21  1  0.83239200  0.50000000  0.98695400  1
  W  W22  1  0.16629400  0.50000000  0.48640600  1
  W  W23  1  0.33239200  0.00000000  0.98695400  1
  O  O24  1  0.58550350  0.24672050  0.59524400  1
  O  O25  1  0.51907300  0.00000000  0.34050700  1
  O  O26  1  0.66697300  0.00000000  0.10831000  1
  O  O27  1  0.99977200  0.00000000  0.30616800  1
  O  O28  1  0.99977000  0.00000000  0.80845000  1
  O  O29  1  0.58550350  0.75327950  0.59524400  1
  O  O30  1  0.73835450  0.22029650  0.34531900  1
  O  O31  1  0.73835450  0.77970350  0.34531900  1
  O  O32  1  0.67073400  0.50000000  0.09491700  1
  O  O33  1  0.83360600  0.00000000  0.59295400  1
  O  O34  1  0.75756400  0.72067800  0.84307500  1
  O  O35  1  0.75756400  0.27932200  0.84307500  1
  O  O36  1  0.83375000  0.50000000  0.60723100  1
  O  O37  1  0.91837950  0.74822350  0.09537000  1
  O  O38  1  0.97755800  0.50000000  0.84905700  1
  O  O39  1  0.91837950  0.25177650  0.09537000  1
  O  O40  1  0.08550350  0.74672050  0.59524400  1
  O  O41  1  0.01907300  0.50000000  0.34050700  1
  O  O42  1  0.16697300  0.50000000  0.10831000  1
  O  O43  1  0.49977200  0.50000000  0.30616800  1
  O  O44  1  0.49977000  0.50000000  0.80845000  1
  O  O45  1  0.08550350  0.25327950  0.59524400  1
  O  O46  1  0.23835450  0.72029650  0.34531900  1
  O  O47  1  0.23835450  0.27970350  0.34531900  1
  O  O48  1  0.17073400  0.00000000  0.09491700  1
  O  O49  1  0.33360600  0.50000000  0.59295400  1
  O  O50  1  0.25756400  0.22067800  0.84307500  1
  O  O51  1  0.25756400  0.77932200  0.84307500  1
  O  O52  1  0.33375000  0.00000000  0.60723100  1
  O  O53  1  0.41837950  0.24822350  0.09537000  1
  O  O54  1  0.47755800  0.00000000  0.84905700  1
  O  O55  1  0.41837950  0.75177650  0.09537000  1
