# generated using pymatgen
data_Mg(NiO2)4
_symmetry_space_group_name_H-M   'P 1'
_cell_length_a   5.70308882
_cell_length_b   5.70308882
_cell_length_c   14.83749300
_cell_angle_alpha   90.00000000
_cell_angle_beta   90.00000000
_cell_angle_gamma   120.00000000
_symmetry_Int_Tables_number   1
_chemical_formula_structural   Mg(NiO2)4
_chemical_formula_sum   'Mg3 Ni12 O24'
_cell_volume   417.93758520
_cell_formula_units_Z   3
loop_
 _symmetry_equiv_pos_site_id
 _symmetry_equiv_pos_as_xyz
  1  'x, y, z'
loop_
 _atom_site_type_symbol
 _atom_site_label
 _atom_site_symmetry_multiplicity
 _atom_site_fract_x
 _atom_site_fract_y
 _atom_site_fract_z
 _atom_site_occupancy
  Mg  Mg0  1  0.33333333  0.66666667  0.16666667  1
  Mg  Mg1  1  1.00000000  1.00000000  0.50000000  1
  Mg  Mg2  1  0.66666667  0.33333333  0.83333333  1
  Ni  Ni3  1  0.66666667  0.83333333  0.33333333  1
  Ni  Ni4  1  0.66666667  0.33333333  0.33333333  1
  Ni  Ni5  1  0.16666667  0.83333333  0.33333333  1
  Ni  Ni6  1  0.16666667  0.33333333  0.33333333  1
  Ni  Ni7  1  0.33333333  0.16666667  0.66666667  1
  Ni  Ni8  1  0.33333333  0.66666667  0.66666667  1
  Ni  Ni9  1  0.83333333  0.16666667  0.66666667  1
  Ni  Ni10  1  0.83333333  0.66666667  0.66666667  1
  Ni  Ni11  1  0.00000000  0.50000000  0.00000000  1
  Ni  Ni12  1  1.00000000  1.00000000  0.00000000  1
  Ni  Ni13  1  0.50000000  0.50000000  0.00000000  1
  Ni  Ni14  1  0.50000000  0.00000000  0.00000000  1
  O  O15  1  0.02615433  0.51307717  0.26492667  1
  O  O16  1  0.64051233  0.82025617  0.06840667  1
  O  O17  1  0.17974383  0.82025617  0.06840667  1
  O  O18  1  0.00000000  0.00000000  0.26931200  1
  O  O19  1  0.66666667  0.33333333  0.06402133  1
  O  O20  1  0.48692283  0.51307717  0.26492667  1
  O  O21  1  0.17974383  0.35948767  0.06840667  1
  O  O22  1  0.48692283  0.97384567  0.26492667  1
  O  O23  1  0.69282100  0.84641050  0.59826000  1
  O  O24  1  0.30717900  0.15358950  0.40174000  1
  O  O25  1  0.84641050  0.15358950  0.40174000  1
  O  O26  1  0.66666667  0.33333333  0.60264533  1
  O  O27  1  0.33333333  0.66666667  0.39735467  1
  O  O28  1  0.15358950  0.84641050  0.59826000  1
  O  O29  1  0.84641050  0.69282100  0.40174000  1
  O  O30  1  0.15358950  0.30717900  0.59826000  1
  O  O31  1  0.35948767  0.17974383  0.93159333  1
  O  O32  1  0.97384567  0.48692283  0.73507333  1
  O  O33  1  0.51307717  0.48692283  0.73507333  1
  O  O34  1  0.33333333  0.66666667  0.93597867  1
  O  O35  1  0.00000000  1.00000000  0.73068800  1
  O  O36  1  0.82025617  0.17974383  0.93159333  1
  O  O37  1  0.51307717  0.02615433  0.73507333  1
  O  O38  1  0.82025617  0.64051233  0.93159333  1
