# generated using pymatgen
data_Li4Y3FeO8
_symmetry_space_group_name_H-M   'P 1'
_cell_length_a   6.18585233
_cell_length_b   10.12174692
_cell_length_c   6.19738300
_cell_angle_alpha   90.00000000
_cell_angle_beta   90.00000000
_cell_angle_gamma   90.00000000
_symmetry_Int_Tables_number   1
_chemical_formula_structural   Li4Y3FeO8
_chemical_formula_sum   'Li8 Y6 Fe2 O16'
_cell_volume   388.02826239
_cell_formula_units_Z   2
loop_
 _symmetry_equiv_pos_site_id
 _symmetry_equiv_pos_as_xyz
  1  'x, y, z'
loop_
 _atom_site_type_symbol
 _atom_site_label
 _atom_site_symmetry_multiplicity
 _atom_site_fract_x
 _atom_site_fract_y
 _atom_site_fract_z
 _atom_site_occupancy
  Li  Li0  1  0.00000000  0.00000000  0.00000000  1
  Li  Li1  1  0.50000000  0.00000000  0.50000000  1
  Li  Li2  1  0.25000000  0.25000000  0.24861000  1
  Li  Li3  1  0.25000000  0.75000000  0.75139000  1
  Li  Li4  1  0.50000000  0.50000000  0.00000000  1
  Li  Li5  1  0.00000000  0.50000000  0.50000000  1
  Li  Li6  1  0.75000000  0.75000000  0.24861000  1
  Li  Li7  1  0.75000000  0.25000000  0.75139000  1
  Y  Y8  1  0.50000000  0.00000000  0.00000000  1
  Y  Y9  1  0.75000000  0.25000000  0.25744000  1
  Y  Y10  1  0.25000000  0.25000000  0.74256000  1
  Y  Y11  1  0.00000000  0.50000000  0.00000000  1
  Y  Y12  1  0.25000000  0.75000000  0.25744000  1
  Y  Y13  1  0.75000000  0.75000000  0.74256000  1
  Fe  Fe14  1  0.00000000  0.00000000  0.50000000  1
  Fe  Fe15  1  0.50000000  0.50000000  0.50000000  1
  O  O16  1  0.50000000  0.22344000  0.00000000  1
  O  O17  1  0.50000000  0.77656000  0.00000000  1
  O  O18  1  0.50000000  0.70857400  0.50000000  1
  O  O19  1  0.50000000  0.29142600  0.50000000  1
  O  O20  1  0.75791800  0.01755800  0.26211000  1
  O  O21  1  0.24208200  0.98244200  0.26211000  1
  O  O22  1  0.24208200  0.01755800  0.73789000  1
  O  O23  1  0.75791800  0.98244200  0.73789000  1
  O  O24  1  0.00000000  0.72344000  0.00000000  1
  O  O25  1  0.00000000  0.27656000  0.00000000  1
  O  O26  1  0.00000000  0.20857400  0.50000000  1
  O  O27  1  0.00000000  0.79142600  0.50000000  1
  O  O28  1  0.25791800  0.51755800  0.26211000  1
  O  O29  1  0.74208200  0.48244200  0.26211000  1
  O  O30  1  0.74208200  0.51755800  0.73789000  1
  O  O31  1  0.25791800  0.48244200  0.73789000  1
