# generated using pymatgen
data_Li2CoNi3O8
_symmetry_space_group_name_H-M   'P 1'
_cell_length_a   5.72021162
_cell_length_b   5.72021162
_cell_length_c   13.88598034
_cell_angle_alpha   90.00000000
_cell_angle_beta   90.00000000
_cell_angle_gamma   120.00000000
_symmetry_Int_Tables_number   1
_chemical_formula_structural   Li2CoNi3O8
_chemical_formula_sum   'Li6 Co3 Ni9 O24'
_cell_volume   393.48788896
_cell_formula_units_Z   3
loop_
 _symmetry_equiv_pos_site_id
 _symmetry_equiv_pos_as_xyz
  1  'x, y, z'
loop_
 _atom_site_type_symbol
 _atom_site_label
 _atom_site_symmetry_multiplicity
 _atom_site_fract_x
 _atom_site_fract_y
 _atom_site_fract_z
 _atom_site_occupancy
  Li  Li0  1  0.33333333  0.66666667  0.54216667  1
  Li  Li1  1  0.33333333  0.66666667  0.79116667  1
  Li  Li2  1  0.00000000  0.00000000  0.87550000  1
  Li  Li3  1  0.00000000  0.00000000  0.12450000  1
  Li  Li4  1  0.66666667  0.33333333  0.20883333  1
  Li  Li5  1  0.66666667  0.33333333  0.45783333  1
  Co  Co6  1  0.33333333  0.66666667  0.16666667  1
  Co  Co7  1  1.00000000  1.00000000  0.50000000  1
  Co  Co8  1  0.66666667  0.33333333  0.83333333  1
  Ni  Ni9  1  0.50000000  0.50000000  0.00000000  1
  Ni  Ni10  1  0.00000000  0.50000000  0.00000000  1
  Ni  Ni11  1  0.16666667  0.33333333  0.33333333  1
  Ni  Ni12  1  0.16666667  0.83333333  0.33333333  1
  Ni  Ni13  1  0.66666667  0.83333333  0.33333333  1
  Ni  Ni14  1  0.83333333  0.66666667  0.66666667  1
  Ni  Ni15  1  0.83333333  0.16666667  0.66666667  1
  Ni  Ni16  1  0.33333333  0.16666667  0.66666667  1
  Ni  Ni17  1  0.50000000  0.00000000  0.00000000  1
  O  O18  1  0.03631467  0.51815733  0.25351033  1
  O  O19  1  0.48184267  0.51815733  0.25351033  1
  O  O20  1  0.33333333  0.66666667  0.92921067  1
  O  O21  1  0.48184267  0.96368533  0.25351033  1
  O  O22  1  0.18482400  0.36964800  0.07982300  1
  O  O23  1  0.33333333  0.66666667  0.40412267  1
  O  O24  1  0.18482400  0.81517600  0.07982300  1
  O  O25  1  0.63035200  0.81517600  0.07982300  1
  O  O26  1  0.70298133  0.85149067  0.58684367  1
  O  O27  1  0.14850933  0.85149067  0.58684367  1
  O  O28  1  0.00000000  0.00000000  0.26254400  1
  O  O29  1  0.14850933  0.29701867  0.58684367  1
  O  O30  1  0.85149067  0.70298133  0.41315633  1
  O  O31  1  0.00000000  0.00000000  0.73745600  1
  O  O32  1  0.85149067  0.14850933  0.41315633  1
  O  O33  1  0.29701867  0.14850933  0.41315633  1
  O  O34  1  0.36964800  0.18482400  0.92017700  1
  O  O35  1  0.81517600  0.18482400  0.92017700  1
  O  O36  1  0.66666667  0.33333333  0.59587733  1
  O  O37  1  0.81517600  0.63035200  0.92017700  1
  O  O38  1  0.51815733  0.03631467  0.74648967  1
  O  O39  1  0.66666667  0.33333333  0.07078933  1
  O  O40  1  0.51815733  0.48184267  0.74648967  1
  O  O41  1  0.96368533  0.48184267  0.74648967  1
