# generated using pymatgen
data_LiFeSiO4
_symmetry_space_group_name_H-M   'P 1'
_cell_length_a   5.27585600
_cell_length_b   11.32490600
_cell_length_c   5.96096189
_cell_angle_alpha   90.00000000
_cell_angle_beta   91.37318202
_cell_angle_gamma   90.00000000
_symmetry_Int_Tables_number   1
_chemical_formula_structural   LiFeSiO4
_chemical_formula_sum   'Li4 Fe4 Si4 O16'
_cell_volume   356.05668526
_cell_formula_units_Z   4
loop_
 _symmetry_equiv_pos_site_id
 _symmetry_equiv_pos_as_xyz
  1  'x, y, z'
loop_
 _atom_site_type_symbol
 _atom_site_label
 _atom_site_symmetry_multiplicity
 _atom_site_fract_x
 _atom_site_fract_y
 _atom_site_fract_z
 _atom_site_occupancy
  Li  Li0  1  0.94434000  0.32940800  0.24385900  1
  Li  Li1  1  0.05566000  0.82940800  0.75614100  1
  Li  Li2  1  0.43116300  0.67100800  0.22105900  1
  Li  Li3  1  0.56883700  0.17100800  0.77894100  1
  Fe  Fe4  1  0.92088200  0.57657700  0.99540400  1
  Fe  Fe5  1  0.07911800  0.07657700  0.00459600  1
  Fe  Fe6  1  0.43127600  0.92302700  0.48793000  1
  Fe  Fe7  1  0.56872400  0.42302700  0.51207000  1
  Si  Si8  1  0.92948000  0.08302100  0.50047700  1
  Si  Si9  1  0.07052000  0.58302100  0.49952300  1
  Si  Si10  1  0.42676400  0.41661500  0.00839900  1
  Si  Si11  1  0.57323600  0.91661500  0.99160100  1
  O  O12  1  0.88281700  0.93499200  0.97397200  1
  O  O13  1  0.92277600  0.45486500  0.49911300  1
  O  O14  1  0.99025600  0.15766000  0.73457100  1
  O  O15  1  0.99812200  0.65871300  0.72541600  1
  O  O16  1  0.00187800  0.15871300  0.27458400  1
  O  O17  1  0.00974400  0.65766000  0.26542900  1
  O  O18  1  0.07722400  0.95486500  0.50088700  1
  O  O19  1  0.11718300  0.43499200  0.02602800  1
  O  O20  1  0.38065500  0.56301000  0.49099400  1
  O  O21  1  0.46012400  0.84390400  0.77079700  1
  O  O22  1  0.43522800  0.04831600  0.99423000  1
  O  O23  1  0.49706700  0.34083800  0.78170500  1
  O  O24  1  0.50293300  0.84083800  0.21829500  1
  O  O25  1  0.56477200  0.54831600  0.00577000  1
  O  O26  1  0.53987600  0.34390400  0.22920300  1
  O  O27  1  0.61934500  0.06301000  0.50900600  1
