# generated using pymatgen
data_Li2VOF5
_symmetry_space_group_name_H-M   'P 1'
_cell_length_a   4.94173744
_cell_length_b   4.94173744
_cell_length_c   13.42587600
_cell_angle_alpha   90.00000000
_cell_angle_beta   90.00000000
_cell_angle_gamma   120.00000000
_symmetry_Int_Tables_number   1
_chemical_formula_structural   Li2VOF5
_chemical_formula_sum   'Li6 V3 O3 F15'
_cell_volume   283.94393568
_cell_formula_units_Z   3
loop_
 _symmetry_equiv_pos_site_id
 _symmetry_equiv_pos_as_xyz
  1  'x, y, z'
loop_
 _atom_site_type_symbol
 _atom_site_label
 _atom_site_symmetry_multiplicity
 _atom_site_fract_x
 _atom_site_fract_y
 _atom_site_fract_z
 _atom_site_occupancy
  Li  Li0  1  0.67134533  0.33942367  0.17249800  1
  Li  Li1  1  0.66057633  0.33192167  0.50583133  1
  Li  Li2  1  0.66807833  0.32865467  0.83916467  1
  Li  Li3  1  0.01421233  0.01454867  0.50563800  1
  Li  Li4  1  0.00033633  0.98578767  0.17230467  1
  Li  Li5  1  0.98545133  0.99966367  0.83897133  1
  V  V6  1  0.33410333  0.68888967  0.67261500  1
  V  V7  1  0.31111033  0.64521367  0.00594833  1
  V  V8  1  0.35478633  0.66589667  0.33928167  1
  O  O9  1  0.33340133  0.95948467  0.74243100  1
  O  O10  1  0.62608333  0.66659867  0.40909767  1
  O  O11  1  0.04051533  0.37391667  0.07576433  1
  F  F12  1  0.32697233  0.35730567  0.25028200  1
  F  F13  1  0.33892333  0.36502367  0.91719100  1
  F  F14  1  0.33509733  0.35434067  0.58351300  1
  F  F15  1  0.34073233  0.98419767  0.07759700  1
  F  F16  1  0.32659033  0.97595367  0.41162600  1
  F  F17  1  0.64269433  0.96966667  0.58361533  1
  F  F18  1  0.63497633  0.97389967  0.25052433  1
  F  F19  1  0.64565933  0.98075667  0.91684633  1
  F  F20  1  0.64936333  0.67340967  0.07829267  1
  F  F21  1  0.64346533  0.65926767  0.74426367  1
  F  F22  1  0.01580233  0.35653467  0.41093033  1
  F  F23  1  0.02404633  0.35063667  0.74495933  1
  F  F24  1  0.03033333  0.67302767  0.91694867  1
  F  F25  1  0.01924333  0.66490267  0.25017967  1
  F  F26  1  0.02610033  0.66107667  0.58385767  1
