# generated using pymatgen
data_VOF2
_symmetry_space_group_name_H-M   'P 1'
_cell_length_a   8.87176173
_cell_length_b   5.42855304
_cell_length_c   5.43728613
_cell_angle_alpha   90.00000000
_cell_angle_beta   125.80305928
_cell_angle_gamma   90.00000000
_symmetry_Int_Tables_number   1
_chemical_formula_structural   VOF2
_chemical_formula_sum   'V4 O4 F8'
_cell_volume   212.38040550
_cell_formula_units_Z   4
loop_
 _symmetry_equiv_pos_site_id
 _symmetry_equiv_pos_as_xyz
  1  'x, y, z'
loop_
 _atom_site_type_symbol
 _atom_site_label
 _atom_site_symmetry_multiplicity
 _atom_site_fract_x
 _atom_site_fract_y
 _atom_site_fract_z
 _atom_site_occupancy
  V  V0  1  0.25000000  0.25000000  0.50000000  1
  V  V1  1  0.75000000  0.25000000  0.00000000  1
  V  V2  1  0.75000000  0.75000000  0.50000000  1
  V  V3  1  0.25000000  0.75000000  0.00000000  1
  O  O4  1  0.00000000  0.29853950  0.25000000  1
  O  O5  1  0.00000000  0.70146050  0.75000000  1
  O  O6  1  0.50000000  0.79853950  0.25000000  1
  O  O7  1  0.50000000  0.20146050  0.75000000  1
  F  F8  1  0.28020800  0.44700000  0.22590800  1
  F  F9  1  0.71979200  0.44700000  0.27409200  1
  F  F10  1  0.28020800  0.55300000  0.72590800  1
  F  F11  1  0.71979200  0.55300000  0.77409200  1
  F  F12  1  0.78020800  0.94700000  0.22590800  1
  F  F13  1  0.21979200  0.94700000  0.27409200  1
  F  F14  1  0.78020800  0.05300000  0.72590800  1
  F  F15  1  0.21979200  0.05300000  0.77409200  1
