# generated using pymatgen
data_Li4Ti2Mn3Nb3O16
_symmetry_space_group_name_H-M   'P 1'
_cell_length_a   10.86668600
_cell_length_b   6.07146800
_cell_length_c   9.89601935
_cell_angle_alpha   90.00000000
_cell_angle_beta   92.07506510
_cell_angle_gamma   90.00000000
_symmetry_Int_Tables_number   1
_chemical_formula_structural   Li4Ti2Mn3Nb3O16
_chemical_formula_sum   'Li8 Ti4 Mn6 Nb6 O32'
_cell_volume   652.47891309
_cell_formula_units_Z   2
loop_
 _symmetry_equiv_pos_site_id
 _symmetry_equiv_pos_as_xyz
  1  'x, y, z'
loop_
 _atom_site_type_symbol
 _atom_site_label
 _atom_site_symmetry_multiplicity
 _atom_site_fract_x
 _atom_site_fract_y
 _atom_site_fract_z
 _atom_site_occupancy
  Li  Li0  1  0.66947100  0.00000000  0.09595800  1
  Li  Li1  1  0.50217200  0.50000000  0.00210300  1
  Li  Li2  1  0.50718300  0.50000000  0.51437800  1
  Li  Li3  1  0.83644100  0.50000000  0.60216600  1
  Li  Li4  1  0.16947100  0.50000000  0.09595800  1
  Li  Li5  1  0.00217200  0.00000000  0.00210300  1
  Li  Li6  1  0.00718300  0.00000000  0.51437800  1
  Li  Li7  1  0.33644100  0.00000000  0.60216600  1
  Ti  Ti8  1  0.64146300  0.00000000  0.51994500  1
  Ti  Ti9  1  0.82919900  0.50000000  0.99518400  1
  Ti  Ti10  1  0.14146300  0.50000000  0.51994500  1
  Ti  Ti11  1  0.32919900  0.00000000  0.99518400  1
  Mn  Mn12  1  0.58158850  0.75438750  0.79649200  1
  Mn  Mn13  1  0.58158850  0.24561250  0.79649200  1
  Mn  Mn14  1  0.66918400  0.50000000  0.29354500  1
  Mn  Mn15  1  0.08158850  0.25438750  0.79649200  1
  Mn  Mn16  1  0.08158850  0.74561250  0.79649200  1
  Mn  Mn17  1  0.16918400  0.00000000  0.29354500  1
  Nb  Nb18  1  0.82264700  0.00000000  0.77199900  1
  Nb  Nb19  1  0.91132750  0.25223650  0.28122900  1
  Nb  Nb20  1  0.91132750  0.74776350  0.28122900  1
  Nb  Nb21  1  0.32264700  0.50000000  0.77199900  1
  Nb  Nb22  1  0.41132750  0.75223650  0.28122900  1
  Nb  Nb23  1  0.41132750  0.24776350  0.28122900  1
  O  O24  1  0.57625500  0.76146700  0.40823200  1
  O  O25  1  0.52364300  0.00000000  0.64394400  1
  O  O26  1  0.68447400  0.00000000  0.89747900  1
  O  O27  1  0.98906400  0.00000000  0.69821100  1
  O  O28  1  0.50050200  0.50000000  0.18506100  1
  O  O29  1  0.57625500  0.23853300  0.40823200  1
  O  O30  1  0.74719300  0.78400000  0.64846100  1
  O  O31  1  0.74719300  0.21600000  0.64846100  1
  O  O32  1  0.67306600  0.50000000  0.91903700  1
  O  O33  1  0.84153500  0.00000000  0.39936700  1
  O  O34  1  0.77144500  0.27337800  0.15630400  1
  O  O35  1  0.77144500  0.72662200  0.15630400  1
  O  O36  1  0.84259700  0.50000000  0.40162800  1
  O  O37  1  0.90358650  0.25514750  0.90631300  1
  O  O38  1  0.98483200  0.50000000  0.15812100  1
  O  O39  1  0.90358650  0.74485250  0.90631300  1
  O  O40  1  0.07625500  0.26146700  0.40823200  1
  O  O41  1  0.02364300  0.50000000  0.64394400  1
  O  O42  1  0.18447400  0.50000000  0.89747900  1
  O  O43  1  0.48906400  0.50000000  0.69821100  1
  O  O44  1  0.00050200  0.00000000  0.18506100  1
  O  O45  1  0.07625500  0.73853300  0.40823200  1
  O  O46  1  0.24719300  0.28400000  0.64846100  1
  O  O47  1  0.24719300  0.71600000  0.64846100  1
  O  O48  1  0.17306600  0.00000000  0.91903700  1
  O  O49  1  0.34153500  0.50000000  0.39936700  1
  O  O50  1  0.27144500  0.77337800  0.15630400  1
  O  O51  1  0.27144500  0.22662200  0.15630400  1
  O  O52  1  0.34259700  0.00000000  0.40162800  1
  O  O53  1  0.40358650  0.75514750  0.90631300  1
  O  O54  1  0.48483200  0.00000000  0.15812100  1
  O  O55  1  0.40358650  0.24485250  0.90631300  1
