# generated using pymatgen
data_Fe2Co(PO4)3
_symmetry_space_group_name_H-M   'P 1'
_cell_length_a   8.65283230
_cell_length_b   8.65283230
_cell_length_c   20.33991743
_cell_angle_alpha   90.00000000
_cell_angle_beta   90.00000000
_cell_angle_gamma   120.00000000
_symmetry_Int_Tables_number   1
_chemical_formula_structural   Fe2Co(PO4)3
_chemical_formula_sum   'Fe12 Co6 P18 O72'
_cell_volume   1318.85299734
_cell_formula_units_Z   6
loop_
 _symmetry_equiv_pos_site_id
 _symmetry_equiv_pos_as_xyz
  1  'x, y, z'
loop_
 _atom_site_type_symbol
 _atom_site_label
 _atom_site_symmetry_multiplicity
 _atom_site_fract_x
 _atom_site_fract_y
 _atom_site_fract_z
 _atom_site_occupancy
  Fe  Fe0  1  0.33333333  0.66666667  0.02157867  1
  Fe  Fe1  1  0.33333333  0.66666667  0.52157867  1
  Fe  Fe2  1  0.33333333  0.66666667  0.81175467  1
  Fe  Fe3  1  0.33333333  0.66666667  0.31175467  1
  Fe  Fe4  1  0.00000000  0.00000000  0.35491200  1
  Fe  Fe5  1  0.00000000  0.00000000  0.85491200  1
  Fe  Fe6  1  1.00000000  0.00000000  0.14508800  1
  Fe  Fe7  1  0.00000000  0.00000000  0.64508800  1
  Fe  Fe8  1  0.66666667  0.33333333  0.68824533  1
  Fe  Fe9  1  0.66666667  0.33333333  0.18824533  1
  Fe  Fe10  1  0.66666667  0.33333333  0.47842133  1
  Fe  Fe11  1  0.66666667  0.33333333  0.97842133  1
  Co  Co12  1  0.00000000  0.00000000  0.00000000  1
  Co  Co13  1  0.33333333  0.66666667  0.16666667  1
  Co  Co14  1  0.66666667  0.33333333  0.33333333  1
  Co  Co15  1  0.00000000  0.00000000  0.50000000  1
  Co  Co16  1  0.33333333  0.66666667  0.66666667  1
  Co  Co17  1  0.66666667  0.33333333  0.83333333  1
  P  P18  1  0.66666667  0.63054133  0.08333333  1
  P  P19  1  0.96387467  0.33333333  0.08333333  1
  P  P20  1  0.36945867  0.03612533  0.08333333  1
  P  P21  1  0.29720800  0.29720800  0.25000000  1
  P  P22  1  0.70279200  0.00000000  0.25000000  1
  P  P23  1  0.00000000  0.70279200  0.25000000  1
  P  P24  1  0.33333333  0.96387467  0.41666667  1
  P  P25  1  0.63054133  0.66666667  0.41666667  1
  P  P26  1  0.03612533  0.36945867  0.41666667  1
  P  P27  1  0.96387467  0.63054133  0.58333333  1
  P  P28  1  0.36945867  0.33333333  0.58333333  1
  P  P29  1  0.66666667  0.03612533  0.58333333  1
  P  P30  1  0.00000000  0.29720800  0.75000000  1
  P  P31  1  0.29720800  0.00000000  0.75000000  1
  P  P32  1  0.70279200  0.70279200  0.75000000  1
  P  P33  1  0.63054133  0.96387467  0.91666667  1
  P  P34  1  0.03612533  0.66666667  0.91666667  1
  P  P35  1  0.33333333  0.36945867  0.91666667  1
  O  O36  1  0.53664900  0.67716300  0.35483600  1
  O  O37  1  0.14051400  0.46335100  0.35483600  1
  O  O38  1  0.32283700  0.85948600  0.35483600  1
  O  O39  1  0.83265967  0.82141333  0.07256333  1
  O  O40  1  0.67716300  0.53664900  0.14516400  1
  O  O41  1  0.50067367  0.65542033  0.09410333  1
  O  O42  1  0.98875367  0.16734033  0.07256333  1
  O  O43  1  0.15474667  0.49932633  0.09410333  1
  O  O44  1  0.20331567  0.19281933  0.18816933  1
  O  O45  1  0.34457967  0.84525333  0.09410333  1
  O  O46  1  0.48808000  0.32208700  0.26077000  1
  O  O47  1  0.80718067  0.01049633  0.18816933  1
  O  O48  1  0.85948600  0.32283700  0.14516400  1
  O  O49  1  0.17858667  0.01124633  0.07256333  1
  O  O50  1  0.32208700  0.48808000  0.23923000  1
  O  O51  1  0.46335100  0.14051400  0.14516400  1
  O  O52  1  0.51192000  0.83400700  0.23923000  1
  O  O53  1  0.67791300  0.16599300  0.26077000  1
  O  O54  1  0.16599300  0.67791300  0.23923000  1
  O  O55  1  0.98950367  0.79668433  0.18816933  1
  O  O56  1  0.83400700  0.51192000  0.26077000  1
  O  O57  1  0.34382967  0.47384733  0.97849733  1
  O  O58  1  0.52615267  0.86998233  0.97849733  1
  O  O59  1  0.13001767  0.65617033  0.97849733  1
  O  O60  1  0.20331567  0.01049633  0.68816933  1
  O  O61  1  0.80718067  0.79668433  0.68816933  1
  O  O62  1  0.98950367  0.19281933  0.68816933  1
  O  O63  1  0.49932633  0.15474667  0.40589667  1
  O  O64  1  0.34382967  0.86998233  0.47849733  1
  O  O65  1  0.16734033  0.98875367  0.42743667  1
  O  O66  1  0.65542033  0.50067367  0.40589667  1
  O  O67  1  0.82141333  0.83265967  0.42743667  1
  O  O68  1  0.86998233  0.52615267  0.52150267  1
  O  O69  1  0.01124633  0.17858667  0.42743667  1
  O  O70  1  0.15474667  0.65542033  0.59410333  1
  O  O71  1  0.47384733  0.34382967  0.52150267  1
  O  O72  1  0.52615267  0.65617033  0.47849733  1
  O  O73  1  0.84525333  0.34457967  0.40589667  1
  O  O74  1  0.98875367  0.82141333  0.57256333  1
  O  O75  1  0.13001767  0.47384733  0.47849733  1
  O  O76  1  0.17858667  0.16734033  0.57256333  1
  O  O77  1  0.34457967  0.49932633  0.59410333  1
  O  O78  1  0.83265967  0.01124633  0.57256333  1
  O  O79  1  0.65617033  0.13001767  0.52150267  1
  O  O80  1  0.50067367  0.84525333  0.59410333  1
  O  O81  1  0.01049633  0.80718067  0.31183067  1
  O  O82  1  0.19281933  0.20331567  0.31183067  1
  O  O83  1  0.79668433  0.98950367  0.31183067  1
  O  O84  1  0.86998233  0.34382967  0.02150267  1
  O  O85  1  0.47384733  0.13001767  0.02150267  1
  O  O86  1  0.65617033  0.52615267  0.02150267  1
  O  O87  1  0.16599300  0.48808000  0.73923000  1
  O  O88  1  0.01049633  0.20331567  0.81183067  1
  O  O89  1  0.83400700  0.32208700  0.76077000  1
  O  O90  1  0.32208700  0.83400700  0.73923000  1
  O  O91  1  0.48808000  0.16599300  0.76077000  1
  O  O92  1  0.53664900  0.85948600  0.85483600  1
  O  O93  1  0.67791300  0.51192000  0.76077000  1
  O  O94  1  0.82141333  0.98875367  0.92743667  1
  O  O95  1  0.14051400  0.67716300  0.85483600  1
  O  O96  1  0.19281933  0.98950367  0.81183067  1
  O  O97  1  0.51192000  0.67791300  0.73923000  1
  O  O98  1  0.65542033  0.15474667  0.90589667  1
  O  O99  1  0.79668433  0.80718067  0.81183067  1
  O  O100  1  0.84525333  0.50067367  0.90589667  1
  O  O101  1  0.01124633  0.83265967  0.92743667  1
  O  O102  1  0.49932633  0.34457967  0.90589667  1
  O  O103  1  0.32283700  0.46335100  0.85483600  1
  O  O104  1  0.16734033  0.17858667  0.92743667  1
  O  O105  1  0.67716300  0.14051400  0.64516400  1
  O  O106  1  0.85948600  0.53664900  0.64516400  1
  O  O107  1  0.46335100  0.32283700  0.64516400  1
