# generated using pymatgen
data_V4O5F7
_symmetry_space_group_name_H-M   'P 1'
_cell_length_a   5.18751515
_cell_length_b   5.31729992
_cell_length_c   9.06078973
_cell_angle_alpha   106.90572321
_cell_angle_beta   89.78802321
_cell_angle_gamma   118.19395427
_symmetry_Int_Tables_number   1
_chemical_formula_structural   V4O5F7
_chemical_formula_sum   'V4 O5 F7'
_cell_volume   208.09092420
_cell_formula_units_Z   1
loop_
 _symmetry_equiv_pos_site_id
 _symmetry_equiv_pos_as_xyz
  1  'x, y, z'
loop_
 _atom_site_type_symbol
 _atom_site_label
 _atom_site_symmetry_multiplicity
 _atom_site_fract_x
 _atom_site_fract_y
 _atom_site_fract_z
 _atom_site_occupancy
  V  V0  1  0.74954247  0.21869709  0.26380666  1
  V  V1  1  0.52762149  0.50060238  0.49733723  1
  V  V2  1  0.20976325  0.74354801  0.75902016  1
  V  V3  1  0.97512384  0.00511754  0.00443787  1
  O  O4  1  0.71397314  0.89180531  0.37481216  1
  O  O5  1  0.84018381  0.16396812  0.07999869  1
  O  O6  1  0.85444532  0.59749264  0.67079369  1
  O  O7  1  0.17218270  0.83548977  0.91120676  1
  O  O8  1  0.66505217  0.34917461  0.41680029  1
  F  F9  1  0.33847293  0.66037599  0.58487583  1
  F  F10  1  0.32632096  0.07203083  0.16882682  1
  F  F11  1  0.77820230  0.61215490  0.12037402  1
  F  F12  1  0.17336695  0.43077230  0.32955621  1
  F  F13  1  0.28574381  0.11894567  0.62451060  1
  F  F14  1  0.22432327  0.37920844  0.87151716  1
  F  F15  1  0.66568157  0.92061740  0.82212484  1
