# generated using pymatgen
data_Cs2WO4
_symmetry_space_group_name_H-M   'P 1'
_cell_length_a   13.70576200
_cell_length_b   6.70127000
_cell_length_c   8.44223969
_cell_angle_alpha   90.00000000
_cell_angle_beta   116.06888317
_cell_angle_gamma   90.00000000
_symmetry_Int_Tables_number   1
_chemical_formula_structural   Cs2WO4
_chemical_formula_sum   'Cs8 W4 O16'
_cell_volume   696.50320834
_cell_formula_units_Z   4
loop_
 _symmetry_equiv_pos_site_id
 _symmetry_equiv_pos_as_xyz
  1  'x, y, z'
loop_
 _atom_site_type_symbol
 _atom_site_label
 _atom_site_symmetry_multiplicity
 _atom_site_fract_x
 _atom_site_fract_y
 _atom_site_fract_z
 _atom_site_occupancy
  Cs  Cs0  1  0.01288600  0.50000000  0.23999700  1
  Cs  Cs1  1  0.15623900  0.00000000  0.74249600  1
  Cs  Cs2  1  0.34376100  0.50000000  0.25750400  1
  Cs  Cs3  1  0.48711400  0.00000000  0.76000300  1
  Cs  Cs4  1  0.51288600  0.00000000  0.23999700  1
  Cs  Cs5  1  0.65623900  0.50000000  0.74249600  1
  Cs  Cs6  1  0.84376100  0.00000000  0.25750400  1
  Cs  Cs7  1  0.98711400  0.50000000  0.76000300  1
  W  W8  1  0.17478500  0.00000000  0.22157000  1
  W  W9  1  0.32521500  0.50000000  0.77843000  1
  W  W10  1  0.67478500  0.50000000  0.22157000  1
  W  W11  1  0.82521500  0.00000000  0.77843000  1
  O  O12  1  0.09508400  0.00000000  0.34653800  1
  O  O13  1  0.17971900  0.50000000  0.63286700  1
  O  O14  1  0.35618800  0.72292000  0.91543000  1
  O  O15  1  0.35618800  0.27708000  0.91543000  1
  O  O16  1  0.14381200  0.77708000  0.08457000  1
  O  O17  1  0.14381200  0.22292000  0.08457000  1
  O  O18  1  0.32028100  0.00000000  0.36713300  1
  O  O19  1  0.40491600  0.50000000  0.65346200  1
  O  O20  1  0.59508400  0.50000000  0.34653800  1
  O  O21  1  0.67971900  0.00000000  0.63286700  1
  O  O22  1  0.85618800  0.22292000  0.91543000  1
  O  O23  1  0.85618800  0.77708000  0.91543000  1
  O  O24  1  0.64381200  0.27708000  0.08457000  1
  O  O25  1  0.64381200  0.72292000  0.08457000  1
  O  O26  1  0.82028100  0.50000000  0.36713300  1
  O  O27  1  0.90491600  0.00000000  0.65346200  1
