# generated using pymatgen
data_Li2NiSnO4
_symmetry_space_group_name_H-M   'P 1'
_cell_length_a   6.11865791
_cell_length_b   6.23145067
_cell_length_c   8.51553674
_cell_angle_alpha   90.00000000
_cell_angle_beta   90.00000000
_cell_angle_gamma   90.00000000
_symmetry_Int_Tables_number   1
_chemical_formula_structural   Li2NiSnO4
_chemical_formula_sum   'Li8 Ni4 Sn4 O16'
_cell_volume   324.68136376
_cell_formula_units_Z   4
loop_
 _symmetry_equiv_pos_site_id
 _symmetry_equiv_pos_as_xyz
  1  'x, y, z'
loop_
 _atom_site_type_symbol
 _atom_site_label
 _atom_site_symmetry_multiplicity
 _atom_site_fract_x
 _atom_site_fract_y
 _atom_site_fract_z
 _atom_site_occupancy
  Li  Li0  1  0.75000000  0.25000000  0.25000000  1
  Li  Li1  1  0.25000000  0.25000000  0.25000000  1
  Li  Li2  1  0.50000000  0.00000000  0.50000000  1
  Li  Li3  1  0.50000000  0.50000000  0.50000000  1
  Li  Li4  1  0.25000000  0.75000000  0.75000000  1
  Li  Li5  1  0.75000000  0.75000000  0.75000000  1
  Li  Li6  1  0.00000000  0.50000000  0.00000000  1
  Li  Li7  1  0.00000000  0.00000000  0.00000000  1
  Ni  Ni8  1  0.25000000  0.25000000  0.75000000  1
  Ni  Ni9  1  0.75000000  0.25000000  0.75000000  1
  Ni  Ni10  1  0.75000000  0.75000000  0.25000000  1
  Ni  Ni11  1  0.25000000  0.75000000  0.25000000  1
  Sn  Sn12  1  0.50000000  0.00000000  0.00000000  1
  Sn  Sn13  1  0.50000000  0.50000000  0.00000000  1
  Sn  Sn14  1  0.00000000  0.50000000  0.50000000  1
  Sn  Sn15  1  0.00000000  0.00000000  0.50000000  1
  O  O16  1  0.50000000  0.48650850  0.75886550  1
  O  O17  1  0.50000000  0.01349150  0.75886550  1
  O  O18  1  0.00000000  0.48650850  0.74113450  1
  O  O19  1  0.00000000  0.01349150  0.74113450  1
  O  O20  1  0.23840825  0.75000000  0.49976575  1
  O  O21  1  0.26159175  0.25000000  0.99976575  1
  O  O22  1  0.23840825  0.25000000  0.50023425  1
  O  O23  1  0.26159175  0.75000000  0.00023425  1
  O  O24  1  0.00000000  0.98650850  0.25886550  1
  O  O25  1  0.00000000  0.51349150  0.25886550  1
  O  O26  1  0.50000000  0.98650850  0.24113450  1
  O  O27  1  0.50000000  0.51349150  0.24113450  1
  O  O28  1  0.73840825  0.25000000  0.99976575  1
  O  O29  1  0.76159175  0.75000000  0.49976575  1
  O  O30  1  0.73840825  0.75000000  0.00023425  1
  O  O31  1  0.76159175  0.25000000  0.50023425  1
