# generated using pymatgen
data_FeOF
_symmetry_space_group_name_H-M   'P 1'
_cell_length_a   4.78374100
_cell_length_b   3.08140700
_cell_length_c   9.55164500
_cell_angle_alpha   90.00000000
_cell_angle_beta   93.34827247
_cell_angle_gamma   90.00000000
_symmetry_Int_Tables_number   1
_chemical_formula_structural   FeOF
_chemical_formula_sum   'Fe4 O4 F4'
_cell_volume   140.55713821
_cell_formula_units_Z   4
loop_
 _symmetry_equiv_pos_site_id
 _symmetry_equiv_pos_as_xyz
  1  'x, y, z'
loop_
 _atom_site_type_symbol
 _atom_site_label
 _atom_site_symmetry_multiplicity
 _atom_site_fract_x
 _atom_site_fract_y
 _atom_site_fract_z
 _atom_site_occupancy
  Fe  Fe0  1  0.05302200  0.00000000  0.99997400  1
  Fe  Fe1  1  0.98669300  0.00000000  0.49896100  1
  Fe  Fe2  1  0.51640200  0.50000000  0.24856200  1
  Fe  Fe3  1  0.44107200  0.50000000  0.74994500  1
  O  O4  1  0.19703500  0.50000000  0.90267600  1
  O  O5  1  0.31785100  0.00000000  0.15774000  1
  O  O6  1  0.29027600  0.00000000  0.64672100  1
  O  O7  1  0.70407900  0.00000000  0.35247400  1
  F  F8  1  0.18686300  0.50000000  0.40529100  1
  F  F9  1  0.69191000  0.00000000  0.84538300  1
  F  F10  1  0.81702600  0.50000000  0.09143000  1
  F  F11  1  0.79777100  0.50000000  0.60084400  1
