# generated using pymatgen
data_NaTiO2
_symmetry_space_group_name_H-M   'P 1'
_cell_length_a   8.81734000
_cell_length_b   8.81734000
_cell_length_c   8.81734000
_cell_angle_alpha   90.00000000
_cell_angle_beta   90.00000000
_cell_angle_gamma   90.00000000
_symmetry_Int_Tables_number   1
_chemical_formula_structural   NaTiO2
_chemical_formula_sum   'Na16 Ti16 O32'
_cell_volume   685.50837185
_cell_formula_units_Z   16
loop_
 _symmetry_equiv_pos_site_id
 _symmetry_equiv_pos_as_xyz
  1  'x, y, z'
loop_
 _atom_site_type_symbol
 _atom_site_label
 _atom_site_symmetry_multiplicity
 _atom_site_fract_x
 _atom_site_fract_y
 _atom_site_fract_z
 _atom_site_occupancy
  Na  Na0  1  0.87500000  0.87500000  0.12500000  1
  Na  Na1  1  0.12500000  0.12500000  0.12500000  1
  Na  Na2  1  0.37500000  0.12500000  0.37500000  1
  Na  Na3  1  0.62500000  0.87500000  0.37500000  1
  Na  Na4  1  0.87500000  0.37500000  0.62500000  1
  Na  Na5  1  0.12500000  0.62500000  0.62500000  1
  Na  Na6  1  0.37500000  0.62500000  0.87500000  1
  Na  Na7  1  0.62500000  0.37500000  0.87500000  1
  Na  Na8  1  0.37500000  0.87500000  0.62500000  1
  Na  Na9  1  0.62500000  0.12500000  0.62500000  1
  Na  Na10  1  0.87500000  0.12500000  0.87500000  1
  Na  Na11  1  0.12500000  0.87500000  0.87500000  1
  Na  Na12  1  0.37500000  0.37500000  0.12500000  1
  Na  Na13  1  0.62500000  0.62500000  0.12500000  1
  Na  Na14  1  0.87500000  0.62500000  0.37500000  1
  Na  Na15  1  0.12500000  0.37500000  0.37500000  1
  Ti  Ti16  1  0.12500000  0.87500000  0.37500000  1
  Ti  Ti17  1  0.12500000  0.62500000  0.12500000  1
  Ti  Ti18  1  0.37500000  0.62500000  0.37500000  1
  Ti  Ti19  1  0.37500000  0.87500000  0.12500000  1
  Ti  Ti20  1  0.12500000  0.37500000  0.87500000  1
  Ti  Ti21  1  0.12500000  0.12500000  0.62500000  1
  Ti  Ti22  1  0.37500000  0.12500000  0.87500000  1
  Ti  Ti23  1  0.37500000  0.37500000  0.62500000  1
  Ti  Ti24  1  0.62500000  0.87500000  0.87500000  1
  Ti  Ti25  1  0.62500000  0.62500000  0.62500000  1
  Ti  Ti26  1  0.87500000  0.62500000  0.87500000  1
  Ti  Ti27  1  0.87500000  0.87500000  0.62500000  1
  Ti  Ti28  1  0.62500000  0.37500000  0.37500000  1
  Ti  Ti29  1  0.62500000  0.12500000  0.12500000  1
  Ti  Ti30  1  0.87500000  0.12500000  0.37500000  1
  Ti  Ti31  1  0.87500000  0.37500000  0.12500000  1
  O  O32  1  0.86123367  0.13876633  0.13876633  1
  O  O33  1  0.11123367  0.11123367  0.38876633  1
  O  O34  1  0.13876633  0.86123367  0.13876633  1
  O  O35  1  0.36123367  0.86123367  0.36123367  1
  O  O36  1  0.38876633  0.38876633  0.38876633  1
  O  O37  1  0.11123367  0.38876633  0.11123367  1
  O  O38  1  0.63876633  0.13876633  0.36123367  1
  O  O39  1  0.38876633  0.11123367  0.11123367  1
  O  O40  1  0.86123367  0.63876633  0.63876633  1
  O  O41  1  0.11123367  0.61123367  0.88876633  1
  O  O42  1  0.13876633  0.36123367  0.63876633  1
  O  O43  1  0.36123367  0.36123367  0.86123367  1
  O  O44  1  0.38876633  0.88876633  0.88876633  1
  O  O45  1  0.11123367  0.88876633  0.61123367  1
  O  O46  1  0.63876633  0.63876633  0.86123367  1
  O  O47  1  0.38876633  0.61123367  0.61123367  1
  O  O48  1  0.36123367  0.13876633  0.63876633  1
  O  O49  1  0.61123367  0.11123367  0.88876633  1
  O  O50  1  0.63876633  0.86123367  0.63876633  1
  O  O51  1  0.86123367  0.86123367  0.86123367  1
  O  O52  1  0.88876633  0.38876633  0.88876633  1
  O  O53  1  0.61123367  0.38876633  0.61123367  1
  O  O54  1  0.13876633  0.13876633  0.86123367  1
  O  O55  1  0.88876633  0.11123367  0.61123367  1
  O  O56  1  0.36123367  0.63876633  0.13876633  1
  O  O57  1  0.61123367  0.61123367  0.38876633  1
  O  O58  1  0.63876633  0.36123367  0.13876633  1
  O  O59  1  0.86123367  0.36123367  0.36123367  1
  O  O60  1  0.88876633  0.88876633  0.38876633  1
  O  O61  1  0.61123367  0.88876633  0.11123367  1
  O  O62  1  0.13876633  0.63876633  0.36123367  1
  O  O63  1  0.88876633  0.61123367  0.11123367  1
