# generated using pymatgen
data_V2O3F
_symmetry_space_group_name_H-M   'P 1'
_cell_length_a   6.41933739
_cell_length_b   6.88498418
_cell_length_c   12.09797600
_cell_angle_alpha   90.00000000
_cell_angle_beta   90.00000000
_cell_angle_gamma   90.00000000
_symmetry_Int_Tables_number   1
_chemical_formula_structural   V2O3F
_chemical_formula_sum   'V16 O24 F8'
_cell_volume   534.69468522
_cell_formula_units_Z   8
loop_
 _symmetry_equiv_pos_site_id
 _symmetry_equiv_pos_as_xyz
  1  'x, y, z'
loop_
 _atom_site_type_symbol
 _atom_site_label
 _atom_site_symmetry_multiplicity
 _atom_site_fract_x
 _atom_site_fract_y
 _atom_site_fract_z
 _atom_site_occupancy
  V  V0  1  0.00000000  0.50000000  0.50000000  1
  V  V1  1  0.00000000  0.50420750  0.75000000  1
  V  V2  1  0.00000000  0.50000000  0.00000000  1
  V  V3  1  0.00000000  0.49579250  0.25000000  1
  V  V4  1  0.00000000  0.95611800  0.62471800  1
  V  V5  1  0.00000000  0.04388200  0.12471800  1
  V  V6  1  0.00000000  0.04388200  0.37528200  1
  V  V7  1  0.00000000  0.95611800  0.87528200  1
  V  V8  1  0.50000000  0.00000000  0.50000000  1
  V  V9  1  0.50000000  0.00420750  0.75000000  1
  V  V10  1  0.50000000  0.00000000  0.00000000  1
  V  V11  1  0.50000000  0.99579250  0.25000000  1
  V  V12  1  0.50000000  0.45611800  0.62471800  1
  V  V13  1  0.50000000  0.54388200  0.12471800  1
  V  V14  1  0.50000000  0.54388200  0.37528200  1
  V  V15  1  0.50000000  0.45611800  0.87528200  1
  O  O16  1  0.00000000  0.30337050  0.37506200  1
  O  O17  1  0.00000000  0.30337050  0.12493800  1
  O  O18  1  0.80766300  0.00000000  0.50000000  1
  O  O19  1  0.80729600  0.99617800  0.75000000  1
  O  O20  1  0.80766300  0.00000000  0.00000000  1
  O  O21  1  0.80729600  0.00382200  0.25000000  1
  O  O22  1  0.19233700  0.00000000  0.50000000  1
  O  O23  1  0.19270400  0.99617800  0.75000000  1
  O  O24  1  0.19233700  0.00000000  0.00000000  1
  O  O25  1  0.19270400  0.00382200  0.25000000  1
  O  O26  1  0.00000000  0.69662950  0.62493800  1
  O  O27  1  0.00000000  0.69662950  0.87506200  1
  O  O28  1  0.50000000  0.80337050  0.37506200  1
  O  O29  1  0.50000000  0.80337050  0.12493800  1
  O  O30  1  0.30766300  0.50000000  0.50000000  1
  O  O31  1  0.30729600  0.49617800  0.75000000  1
  O  O32  1  0.30766300  0.50000000  0.00000000  1
  O  O33  1  0.30729600  0.50382200  0.25000000  1
  O  O34  1  0.69233700  0.50000000  0.50000000  1
  O  O35  1  0.69270400  0.49617800  0.75000000  1
  O  O36  1  0.69233700  0.50000000  0.00000000  1
  O  O37  1  0.69270400  0.50382200  0.25000000  1
  O  O38  1  0.50000000  0.19662950  0.62493800  1
  O  O39  1  0.50000000  0.19662950  0.87506200  1
  F  F40  1  0.00000000  0.29989500  0.62503100  1
  F  F41  1  0.00000000  0.29989500  0.87496900  1
  F  F42  1  0.00000000  0.70010500  0.12503100  1
  F  F43  1  0.00000000  0.70010500  0.37496900  1
  F  F44  1  0.50000000  0.79989500  0.62503100  1
  F  F45  1  0.50000000  0.79989500  0.87496900  1
  F  F46  1  0.50000000  0.20010500  0.12503100  1
  F  F47  1  0.50000000  0.20010500  0.37496900  1
