# generated using pymatgen
data_Li5Fe6(BO3)6
_symmetry_space_group_name_H-M   'P 1'
_cell_length_a   15.70830170
_cell_length_b   9.03235411
_cell_length_c   11.33445113
_cell_angle_alpha   90.00000000
_cell_angle_beta   115.50814514
_cell_angle_gamma   90.00000000
_symmetry_Int_Tables_number   1
_chemical_formula_structural   Li5Fe6(BO3)6
_chemical_formula_sum   'Li20 Fe24 B24 O72'
_cell_volume   1451.40788827
_cell_formula_units_Z   4
loop_
 _symmetry_equiv_pos_site_id
 _symmetry_equiv_pos_as_xyz
  1  'x, y, z'
loop_
 _atom_site_type_symbol
 _atom_site_label
 _atom_site_symmetry_multiplicity
 _atom_site_fract_x
 _atom_site_fract_y
 _atom_site_fract_z
 _atom_site_occupancy
  Li  Li0  1  0.75117900  0.25662500  0.16571900  1
  Li  Li1  1  0.10876500  0.74228700  0.41388100  1
  Li  Li2  1  0.08909300  0.73598300  0.66895800  1
  Li  Li3  1  0.91526300  0.75572400  0.16051800  1
  Li  Li4  1  0.93579250  0.75215150  0.89437500  1
  Li  Li5  1  0.75117900  0.74337500  0.66571900  1
  Li  Li6  1  0.08909300  0.26401700  0.16895800  1
  Li  Li7  1  0.10876500  0.25771300  0.91388100  1
  Li  Li8  1  0.93579250  0.24784850  0.39437500  1
  Li  Li9  1  0.91526300  0.24427600  0.66051800  1
  Li  Li10  1  0.25117900  0.75662500  0.16571900  1
  Li  Li11  1  0.60876500  0.24228700  0.41388100  1
  Li  Li12  1  0.58909300  0.23598300  0.66895800  1
  Li  Li13  1  0.41526300  0.25572400  0.16051800  1
  Li  Li14  1  0.43579250  0.25215150  0.89437500  1
  Li  Li15  1  0.25117900  0.24337500  0.66571900  1
  Li  Li16  1  0.58909300  0.76401700  0.16895800  1
  Li  Li17  1  0.60876500  0.75771300  0.91388100  1
  Li  Li18  1  0.43579250  0.74784850  0.39437500  1
  Li  Li19  1  0.41526300  0.74427600  0.66051800  1
  Fe  Fe20  1  0.06916200  0.59024600  0.12581900  1
  Fe  Fe21  1  0.92468850  0.59279550  0.38654900  1
  Fe  Fe22  1  0.24417350  0.91419550  0.63780700  1
  Fe  Fe23  1  0.24417350  0.08580450  0.13780700  1
  Fe  Fe24  1  0.10886800  0.91283900  0.88488100  1
  Fe  Fe25  1  0.10886800  0.08716100  0.38488100  1
  Fe  Fe26  1  0.91246400  0.92086600  0.63107700  1
  Fe  Fe27  1  0.91246400  0.07913400  0.13107700  1
  Fe  Fe28  1  0.75963400  0.93296600  0.87822200  1
  Fe  Fe29  1  0.75963400  0.06703400  0.37822200  1
  Fe  Fe30  1  0.06916200  0.40975400  0.62581900  1
  Fe  Fe31  1  0.92468850  0.40720450  0.88654900  1
  Fe  Fe32  1  0.56916200  0.09024600  0.12581900  1
  Fe  Fe33  1  0.42468850  0.09279550  0.38654900  1
  Fe  Fe34  1  0.74417350  0.41419550  0.63780700  1
  Fe  Fe35  1  0.74417350  0.58580450  0.13780700  1
  Fe  Fe36  1  0.60886800  0.41283900  0.88488100  1
  Fe  Fe37  1  0.60886800  0.58716100  0.38488100  1
  Fe  Fe38  1  0.41246400  0.42086600  0.63107700  1
  Fe  Fe39  1  0.41246400  0.57913400  0.13107700  1
  Fe  Fe40  1  0.25963400  0.43296600  0.87822200  1
  Fe  Fe41  1  0.25963400  0.56703400  0.37822200  1
  Fe  Fe42  1  0.56916200  0.90975400  0.62581900  1
  Fe  Fe43  1  0.42468850  0.90720450  0.88654900  1
  B  B44  1  0.90725400  0.40940600  0.13285200  1
  B  B45  1  0.76245900  0.40647200  0.37540600  1
  B  B46  1  0.90725400  0.59059400  0.63285200  1
  B  B47  1  0.06844600  0.91806600  0.12177200  1
  B  B48  1  0.76245900  0.59352800  0.87540600  1
  B  B49  1  0.93524900  0.92210100  0.37622000  1
  B  B50  1  0.06844600  0.08193400  0.62177200  1
  B  B51  1  0.23679000  0.42234900  0.12621100  1
  B  B52  1  0.93524900  0.07789900  0.87622000  1
  B  B53  1  0.09004400  0.42107400  0.37172200  1
  B  B54  1  0.23679000  0.57765100  0.62621100  1
  B  B55  1  0.09004400  0.57892600  0.87172200  1
  B  B56  1  0.40725400  0.90940600  0.13285200  1
  B  B57  1  0.26245900  0.90647200  0.37540600  1
  B  B58  1  0.40725400  0.09059400  0.63285200  1
  B  B59  1  0.56844600  0.41806600  0.12177200  1
  B  B60  1  0.26245900  0.09352800  0.87540600  1
  B  B61  1  0.43524900  0.42210100  0.37622000  1
  B  B62  1  0.56844600  0.58193400  0.62177200  1
  B  B63  1  0.73679000  0.92234900  0.12621100  1
  B  B64  1  0.43524900  0.57789900  0.87622000  1
  B  B65  1  0.59004400  0.92107400  0.37172200  1
  B  B66  1  0.73679000  0.07765100  0.62621100  1
  B  B67  1  0.59004400  0.07892600  0.87172200  1
  O  O68  1  0.18664650  0.70677050  0.60934700  1
  O  O69  1  0.87744750  0.54603250  0.16068600  1
  O  O70  1  0.87744750  0.45396750  0.66068600  1
  O  O71  1  0.14593450  0.91297750  0.09337900  1
  O  O72  1  0.98118950  0.59320150  0.59585100  1
  O  O73  1  0.01386300  0.79424000  0.10935400  1
  O  O74  1  0.12932850  0.70649050  0.85410300  1
  O  O75  1  0.18888950  0.90559750  0.41386500  1
  O  O76  1  0.02062000  0.57839800  0.91720500  1
  O  O77  1  0.79039500  0.53907600  0.34075900  1
  O  O78  1  0.79039500  0.46092400  0.84075900  1
  O  O79  1  0.97327350  0.79179150  0.35975600  1
  O  O80  1  0.86598000  0.72226600  0.64412800  1
  O  O81  1  0.04350500  0.05390200  0.15976000  1
  O  O82  1  0.04350500  0.94609800  0.65976000  1
  O  O83  1  0.14593450  0.08702250  0.59337900  1
  O  O84  1  0.81663600  0.92582300  0.09811700  1
  O  O85  1  0.18664650  0.29322950  0.10934700  1
  O  O86  1  0.80513000  0.72434300  0.86682300  1
  O  O87  1  0.18888950  0.09440250  0.91386500  1
  O  O88  1  0.87665250  0.92915050  0.44073000  1
  O  O89  1  0.95434700  0.05502000  0.32448900  1
  O  O90  1  0.95434700  0.94498000  0.82448900  1
  O  O91  1  0.12932850  0.29350950  0.35410300  1
  O  O92  1  0.01386300  0.20576000  0.60935400  1
  O  O93  1  0.21033000  0.55158000  0.16662900  1
  O  O94  1  0.21033000  0.44842000  0.66662900  1
  O  O95  1  0.98118950  0.40679850  0.09585100  1
  O  O96  1  0.81663600  0.07417700  0.59811700  1
  O  O97  1  0.86598000  0.27773400  0.14412800  1
  O  O98  1  0.97327350  0.20820850  0.85975600  1
  O  O99  1  0.02062000  0.42160200  0.41720500  1
  O  O100  1  0.87665250  0.07084950  0.94073000  1
  O  O101  1  0.12126250  0.55620550  0.34160200  1
  O  O102  1  0.12126250  0.44379450  0.84160200  1
  O  O103  1  0.80513000  0.27565700  0.36682300  1
  O  O104  1  0.68664650  0.20677050  0.60934700  1
  O  O105  1  0.37744750  0.04603250  0.16068600  1
  O  O106  1  0.37744750  0.95396750  0.66068600  1
  O  O107  1  0.64593450  0.41297750  0.09337900  1
  O  O108  1  0.48118950  0.09320150  0.59585100  1
  O  O109  1  0.51386300  0.29424000  0.10935400  1
  O  O110  1  0.62932850  0.20649050  0.85410300  1
  O  O111  1  0.68888950  0.40559750  0.41386500  1
  O  O112  1  0.52062000  0.07839800  0.91720500  1
  O  O113  1  0.29039500  0.03907600  0.34075900  1
  O  O114  1  0.29039500  0.96092400  0.84075900  1
  O  O115  1  0.47327350  0.29179150  0.35975600  1
  O  O116  1  0.36598000  0.22226600  0.64412800  1
  O  O117  1  0.54350500  0.55390200  0.15976000  1
  O  O118  1  0.54350500  0.44609800  0.65976000  1
  O  O119  1  0.64593450  0.58702250  0.59337900  1
  O  O120  1  0.31663600  0.42582300  0.09811700  1
  O  O121  1  0.68664650  0.79322950  0.10934700  1
  O  O122  1  0.30513000  0.22434300  0.86682300  1
  O  O123  1  0.68888950  0.59440250  0.91386500  1
  O  O124  1  0.37665250  0.42915050  0.44073000  1
  O  O125  1  0.45434700  0.55502000  0.32448900  1
  O  O126  1  0.45434700  0.44498000  0.82448900  1
  O  O127  1  0.62932850  0.79350950  0.35410300  1
  O  O128  1  0.51386300  0.70576000  0.60935400  1
  O  O129  1  0.71033000  0.05158000  0.16662900  1
  O  O130  1  0.71033000  0.94842000  0.66662900  1
  O  O131  1  0.48118950  0.90679850  0.09585100  1
  O  O132  1  0.31663600  0.57417700  0.59811700  1
  O  O133  1  0.36598000  0.77773400  0.14412800  1
  O  O134  1  0.47327350  0.70820850  0.85975600  1
  O  O135  1  0.52062000  0.92160200  0.41720500  1
  O  O136  1  0.37665250  0.57084950  0.94073000  1
  O  O137  1  0.62126250  0.05620550  0.34160200  1
  O  O138  1  0.62126250  0.94379450  0.84160200  1
  O  O139  1  0.30513000  0.77565700  0.36682300  1
