# generated using pymatgen
data_Li4NbNi3O8
_symmetry_space_group_name_H-M   'P 1'
_cell_length_a   5.94984374
_cell_length_b   5.94984374
_cell_length_c   14.57897016
_cell_angle_alpha   90.00000000
_cell_angle_beta   90.00000000
_cell_angle_gamma   120.00000000
_symmetry_Int_Tables_number   1
_chemical_formula_structural   Li4NbNi3O8
_chemical_formula_sum   'Li12 Nb3 Ni9 O24'
_cell_volume   446.95993916
_cell_formula_units_Z   3
loop_
 _symmetry_equiv_pos_site_id
 _symmetry_equiv_pos_as_xyz
  1  'x, y, z'
loop_
 _atom_site_type_symbol
 _atom_site_label
 _atom_site_symmetry_multiplicity
 _atom_site_fract_x
 _atom_site_fract_y
 _atom_site_fract_z
 _atom_site_occupancy
  Li  Li0  1  0.33333333  0.66666667  0.16666667  1
  Li  Li1  1  0.33333333  0.16666667  0.16666667  1
  Li  Li2  1  0.83333333  0.66666667  0.16666667  1
  Li  Li3  1  0.83333333  0.16666667  0.16666667  1
  Li  Li4  1  1.00000000  1.00000000  0.50000000  1
  Li  Li5  1  0.00000000  0.50000000  0.50000000  1
  Li  Li6  1  0.50000000  0.00000000  0.50000000  1
  Li  Li7  1  0.50000000  0.50000000  0.50000000  1
  Li  Li8  1  0.66666667  0.33333333  0.83333333  1
  Li  Li9  1  0.66666667  0.83333333  0.83333333  1
  Li  Li10  1  0.16666667  0.33333333  0.83333333  1
  Li  Li11  1  0.16666667  0.83333333  0.83333333  1
  Nb  Nb12  1  0.00000000  0.00000000  0.00000000  1
  Nb  Nb13  1  0.66666667  0.33333333  0.33333333  1
  Nb  Nb14  1  0.33333333  0.66666667  0.66666667  1
  Ni  Ni15  1  0.00000000  0.50000000  0.00000000  1
  Ni  Ni16  1  0.50000000  0.00000000  0.00000000  1
  Ni  Ni17  1  0.50000000  0.50000000  0.00000000  1
  Ni  Ni18  1  0.66666667  0.83333333  0.33333333  1
  Ni  Ni19  1  0.16666667  0.33333333  0.33333333  1
  Ni  Ni20  1  0.16666667  0.83333333  0.33333333  1
  Ni  Ni21  1  0.33333333  0.16666667  0.66666667  1
  Ni  Ni22  1  0.83333333  0.66666667  0.66666667  1
  Ni  Ni23  1  0.83333333  0.16666667  0.66666667  1
  O  O24  1  0.66666667  0.33333333  0.07142633  1
  O  O25  1  0.67905467  0.83952733  0.07988833  1
  O  O26  1  0.16047267  0.32094533  0.07988833  1
  O  O27  1  0.00000000  0.00000000  0.26190700  1
  O  O28  1  0.16047267  0.83952733  0.07988833  1
  O  O29  1  0.98761200  0.49380600  0.25344500  1
  O  O30  1  0.50619400  0.01238800  0.25344500  1
  O  O31  1  0.50619400  0.49380600  0.25344500  1
  O  O32  1  0.33333333  0.66666667  0.40475967  1
  O  O33  1  0.34572133  0.17286067  0.41322167  1
  O  O34  1  0.82713933  0.65427867  0.41322167  1
  O  O35  1  0.66666667  0.33333333  0.59524033  1
  O  O36  1  0.82713933  0.17286067  0.41322167  1
  O  O37  1  0.65427867  0.82713933  0.58677833  1
  O  O38  1  0.17286067  0.34572133  0.58677833  1
  O  O39  1  0.17286067  0.82713933  0.58677833  1
  O  O40  1  0.00000000  0.00000000  0.73809300  1
  O  O41  1  0.01238800  0.50619400  0.74655500  1
  O  O42  1  0.49380600  0.98761200  0.74655500  1
  O  O43  1  0.33333333  0.66666667  0.92857367  1
  O  O44  1  0.49380600  0.50619400  0.74655500  1
  O  O45  1  0.32094533  0.16047267  0.92011167  1
  O  O46  1  0.83952733  0.67905467  0.92011167  1
  O  O47  1  0.83952733  0.16047267  0.92011167  1
