# generated using pymatgen
data_Li4Ni3(OF3)2
_symmetry_space_group_name_H-M   'P 1'
_cell_length_a   5.13312772
_cell_length_b   5.15717050
_cell_length_c   5.89686683
_cell_angle_alpha   89.57607601
_cell_angle_beta   107.06226443
_cell_angle_gamma   100.02632848
_symmetry_Int_Tables_number   1
_chemical_formula_structural   Li4Ni3(OF3)2
_chemical_formula_sum   'Li4 Ni3 O2 F6'
_cell_volume   146.79617831
_cell_formula_units_Z   1
loop_
 _symmetry_equiv_pos_site_id
 _symmetry_equiv_pos_as_xyz
  1  'x, y, z'
loop_
 _atom_site_type_symbol
 _atom_site_label
 _atom_site_symmetry_multiplicity
 _atom_site_fract_x
 _atom_site_fract_y
 _atom_site_fract_z
 _atom_site_occupancy
  Li  Li0  1  0.48527125  0.26994300  0.37765400  1
  Li  Li1  1  0.51472875  0.73005700  0.62234600  1
  Li  Li2  1  0.48681925  0.23751650  0.86370100  1
  Li  Li3  1  0.51318075  0.76248350  0.13629900  1
  Ni  Ni4  1  0.00000000  0.00000000  0.50000000  1
  Ni  Ni5  1  0.00232775  0.49892900  0.73902500  1
  Ni  Ni6  1  0.99767225  0.50107100  0.26097500  1
  O  O7  1  0.22999325  0.36000500  0.55804600  1
  O  O8  1  0.77000675  0.63999500  0.44195400  1
  F  F9  1  0.74027625  0.13071450  0.67621200  1
  F  F10  1  0.25972375  0.86928550  0.32378800  1
  F  F11  1  0.27523475  0.86479800  0.80776700  1
  F  F12  1  0.72476525  0.13520200  0.19223300  1
  F  F13  1  0.25072225  0.40473200  0.06409400  1
  F  F14  1  0.74927775  0.59526800  0.93590600  1
