# generated using pymatgen
data_LiSn(PO3)4
_symmetry_space_group_name_H-M   'P 1'
_cell_length_a   17.47408200
_cell_length_b   12.11834000
_cell_length_c   5.48844264
_cell_angle_alpha   90.00000000
_cell_angle_beta   101.84735707
_cell_angle_gamma   90.00000000
_symmetry_Int_Tables_number   1
_chemical_formula_structural   LiSn(PO3)4
_chemical_formula_sum   'Li4 Sn4 P16 O48'
_cell_volume   1137.45793955
_cell_formula_units_Z   4
loop_
 _symmetry_equiv_pos_site_id
 _symmetry_equiv_pos_as_xyz
  1  'x, y, z'
loop_
 _atom_site_type_symbol
 _atom_site_label
 _atom_site_symmetry_multiplicity
 _atom_site_fract_x
 _atom_site_fract_y
 _atom_site_fract_z
 _atom_site_occupancy
  Li  Li0  1  0.43592100  0.00000000  0.38603600  1
  Li  Li1  1  0.56407900  0.00000000  0.61396400  1
  Li  Li2  1  0.93592100  0.50000000  0.38603600  1
  Li  Li3  1  0.06407900  0.50000000  0.61396400  1
  Sn  Sn4  1  0.25000000  0.75000000  0.00000000  1
  Sn  Sn5  1  0.25000000  0.25000000  0.00000000  1
  Sn  Sn6  1  0.75000000  0.25000000  0.00000000  1
  Sn  Sn7  1  0.75000000  0.75000000  0.00000000  1
  P  P8  1  0.57364700  0.20189400  0.17429900  1
  P  P9  1  0.57364700  0.79810600  0.17429900  1
  P  P10  1  0.82145600  0.88223700  0.54923800  1
  P  P11  1  0.82145600  0.11776300  0.54923800  1
  P  P12  1  0.17854400  0.11776300  0.45076200  1
  P  P13  1  0.17854400  0.88223700  0.45076200  1
  P  P14  1  0.42635300  0.20189400  0.82570100  1
  P  P15  1  0.42635300  0.79810600  0.82570100  1
  P  P16  1  0.07364700  0.70189400  0.17429900  1
  P  P17  1  0.07364700  0.29810600  0.17429900  1
  P  P18  1  0.32145600  0.38223700  0.54923800  1
  P  P19  1  0.32145600  0.61776300  0.54923800  1
  P  P20  1  0.67854400  0.61776300  0.45076200  1
  P  P21  1  0.67854400  0.38223700  0.45076200  1
  P  P22  1  0.92635300  0.70189400  0.82570100  1
  P  P23  1  0.92635300  0.29810600  0.82570100  1
  O  O24  1  0.50000000  0.26395800  0.00000000  1
  O  O25  1  0.50000000  0.73604200  0.00000000  1
  O  O26  1  0.79937850  0.12053950  0.26915700  1
  O  O27  1  0.79937850  0.87946050  0.26915700  1
  O  O28  1  0.36786450  0.17687250  0.98922800  1
  O  O29  1  0.36786450  0.82312750  0.98922800  1
  O  O30  1  0.54764050  0.11213250  0.32273700  1
  O  O31  1  0.54764050  0.88786750  0.32273700  1
  O  O32  1  0.60537500  0.30406500  0.35840200  1
  O  O33  1  0.60537500  0.69593500  0.35840200  1
  O  O34  1  0.86146400  0.00000000  0.63561700  1
  O  O35  1  0.24485650  0.86109350  0.31658300  1
  O  O36  1  0.24485650  0.13890650  0.31658300  1
  O  O37  1  0.75514350  0.13890650  0.68341700  1
  O  O38  1  0.75514350  0.86109350  0.68341700  1
  O  O39  1  0.13853600  0.00000000  0.36438300  1
  O  O40  1  0.39462500  0.69593500  0.64159800  1
  O  O41  1  0.39462500  0.30406500  0.64159800  1
  O  O42  1  0.45235950  0.11213250  0.67726300  1
  O  O43  1  0.45235950  0.88786750  0.67726300  1
  O  O44  1  0.63213550  0.17687250  0.01077200  1
  O  O45  1  0.63213550  0.82312750  0.01077200  1
  O  O46  1  0.20062150  0.12053950  0.73084300  1
  O  O47  1  0.20062150  0.87946050  0.73084300  1
  O  O48  1  0.00000000  0.76395800  0.00000000  1
  O  O49  1  0.00000000  0.23604200  0.00000000  1
  O  O50  1  0.29937850  0.62053950  0.26915700  1
  O  O51  1  0.29937850  0.37946050  0.26915700  1
  O  O52  1  0.86786450  0.67687250  0.98922800  1
  O  O53  1  0.86786450  0.32312750  0.98922800  1
  O  O54  1  0.04764050  0.61213250  0.32273700  1
  O  O55  1  0.04764050  0.38786750  0.32273700  1
  O  O56  1  0.10537500  0.80406500  0.35840200  1
  O  O57  1  0.10537500  0.19593500  0.35840200  1
  O  O58  1  0.36146400  0.50000000  0.63561700  1
  O  O59  1  0.74485650  0.36109350  0.31658300  1
  O  O60  1  0.74485650  0.63890650  0.31658300  1
  O  O61  1  0.25514350  0.63890650  0.68341700  1
  O  O62  1  0.25514350  0.36109350  0.68341700  1
  O  O63  1  0.63853600  0.50000000  0.36438300  1
  O  O64  1  0.89462500  0.19593500  0.64159800  1
  O  O65  1  0.89462500  0.80406500  0.64159800  1
  O  O66  1  0.95235950  0.61213250  0.67726300  1
  O  O67  1  0.95235950  0.38786750  0.67726300  1
  O  O68  1  0.13213550  0.67687250  0.01077200  1
  O  O69  1  0.13213550  0.32312750  0.01077200  1
  O  O70  1  0.70062150  0.62053950  0.73084300  1
  O  O71  1  0.70062150  0.37946050  0.73084300  1
