# generated using pymatgen
data_Mn2Si2O7
_symmetry_space_group_name_H-M   'P 1'
_cell_length_a   5.32182600
_cell_length_b   8.38916000
_cell_length_c   12.51416200
_cell_angle_alpha   90.00000000
_cell_angle_beta   90.00000000
_cell_angle_gamma   90.00000000
_symmetry_Int_Tables_number   1
_chemical_formula_structural   Mn2Si2O7
_chemical_formula_sum   'Mn8 Si8 O28'
_cell_volume   558.70289427
_cell_formula_units_Z   4
loop_
 _symmetry_equiv_pos_site_id
 _symmetry_equiv_pos_as_xyz
  1  'x, y, z'
loop_
 _atom_site_type_symbol
 _atom_site_label
 _atom_site_symmetry_multiplicity
 _atom_site_fract_x
 _atom_site_fract_y
 _atom_site_fract_z
 _atom_site_occupancy
  Mn  Mn0  1  0.50000000  0.50000000  0.50000000  1
  Mn  Mn1  1  0.50000000  0.50000000  0.00000000  1
  Mn  Mn2  1  0.50000000  0.46594750  0.75000000  1
  Mn  Mn3  1  0.50000000  0.53405250  0.25000000  1
  Mn  Mn4  1  0.00000000  0.00000000  0.50000000  1
  Mn  Mn5  1  0.00000000  0.00000000  0.00000000  1
  Mn  Mn6  1  0.00000000  0.96594750  0.75000000  1
  Mn  Mn7  1  0.00000000  0.03405250  0.25000000  1
  Si  Si8  1  0.00000000  0.33579700  0.63293500  1
  Si  Si9  1  0.00000000  0.33579700  0.86706500  1
  Si  Si10  1  0.00000000  0.66420300  0.13293500  1
  Si  Si11  1  0.00000000  0.66420300  0.36706500  1
  Si  Si12  1  0.50000000  0.83579700  0.63293500  1
  Si  Si13  1  0.50000000  0.83579700  0.86706500  1
  Si  Si14  1  0.50000000  0.16420300  0.13293500  1
  Si  Si15  1  0.50000000  0.16420300  0.36706500  1
  O  O16  1  0.74525050  0.44902100  0.63556100  1
  O  O17  1  0.74525050  0.44902100  0.86443900  1
  O  O18  1  0.74525050  0.55097900  0.13556100  1
  O  O19  1  0.74525050  0.55097900  0.36443900  1
  O  O20  1  0.00000000  0.23557400  0.75000000  1
  O  O21  1  0.00000000  0.76442600  0.25000000  1
  O  O22  1  0.00000000  0.78497350  0.03520500  1
  O  O23  1  0.00000000  0.78497350  0.46479500  1
  O  O24  1  0.00000000  0.21502650  0.53520500  1
  O  O25  1  0.00000000  0.21502650  0.96479500  1
  O  O26  1  0.25474950  0.55097900  0.36443900  1
  O  O27  1  0.25474950  0.55097900  0.13556100  1
  O  O28  1  0.25474950  0.44902100  0.63556100  1
  O  O29  1  0.25474950  0.44902100  0.86443900  1
  O  O30  1  0.24525050  0.94902100  0.63556100  1
  O  O31  1  0.24525050  0.94902100  0.86443900  1
  O  O32  1  0.24525050  0.05097900  0.13556100  1
  O  O33  1  0.24525050  0.05097900  0.36443900  1
  O  O34  1  0.50000000  0.73557400  0.75000000  1
  O  O35  1  0.50000000  0.26442600  0.25000000  1
  O  O36  1  0.50000000  0.28497350  0.03520500  1
  O  O37  1  0.50000000  0.28497350  0.46479500  1
  O  O38  1  0.50000000  0.71502650  0.53520500  1
  O  O39  1  0.50000000  0.71502650  0.96479500  1
  O  O40  1  0.75474950  0.05097900  0.36443900  1
  O  O41  1  0.75474950  0.05097900  0.13556100  1
  O  O42  1  0.75474950  0.94902100  0.63556100  1
  O  O43  1  0.75474950  0.94902100  0.86443900  1
