# generated using pymatgen
data_LiSbPO5
_symmetry_space_group_name_H-M   'P 1'
_cell_length_a   7.25179400
_cell_length_b   8.38483000
_cell_length_c   7.49339842
_cell_angle_alpha   90.00000000
_cell_angle_beta   115.20530805
_cell_angle_gamma   90.00000000
_symmetry_Int_Tables_number   1
_chemical_formula_structural   LiSbPO5
_chemical_formula_sum   'Li4 Sb4 P4 O20'
_cell_volume   412.25429289
_cell_formula_units_Z   4
loop_
 _symmetry_equiv_pos_site_id
 _symmetry_equiv_pos_as_xyz
  1  'x, y, z'
loop_
 _atom_site_type_symbol
 _atom_site_label
 _atom_site_symmetry_multiplicity
 _atom_site_fract_x
 _atom_site_fract_y
 _atom_site_fract_z
 _atom_site_occupancy
  Li  Li0  1  0.60220400  0.81039100  0.35579800  1
  Li  Li1  1  0.60220400  0.18960900  0.85579800  1
  Li  Li2  1  0.10220400  0.31039100  0.35579800  1
  Li  Li3  1  0.10220400  0.68960900  0.85579800  1
  Sb  Sb4  1  0.01164300  0.99779300  0.51025200  1
  Sb  Sb5  1  0.01164300  0.00220700  0.01025200  1
  Sb  Sb6  1  0.51164300  0.49779300  0.51025200  1
  Sb  Sb7  1  0.51164300  0.50220700  0.01025200  1
  P  P8  1  0.49645100  0.84389100  0.74754300  1
  P  P9  1  0.49645100  0.15610900  0.24754300  1
  P  P10  1  0.99645100  0.34389100  0.74754300  1
  P  P11  1  0.99645100  0.65610900  0.24754300  1
  O  O12  1  0.50664550  0.59305750  0.25947500  1
  O  O13  1  0.58878200  0.74160500  0.62998900  1
  O  O14  1  0.66082800  0.04203300  0.39318200  1
  O  O15  1  0.40588500  0.73243500  0.85778600  1
  O  O16  1  0.66082800  0.95796700  0.89318200  1
  O  O17  1  0.32421850  0.04951850  0.09730300  1
  O  O18  1  0.58878200  0.25839500  0.12998900  1
  O  O19  1  0.32421850  0.95048150  0.59730300  1
  O  O20  1  0.40588500  0.26756500  0.35778600  1
  O  O21  1  0.50664550  0.40694250  0.75947500  1
  O  O22  1  0.00664550  0.09305750  0.25947500  1
  O  O23  1  0.08878200  0.24160500  0.62998900  1
  O  O24  1  0.16082800  0.54203300  0.39318200  1
  O  O25  1  0.90588500  0.23243500  0.85778600  1
  O  O26  1  0.16082800  0.45796700  0.89318200  1
  O  O27  1  0.82421850  0.54951850  0.09730300  1
  O  O28  1  0.08878200  0.75839500  0.12998900  1
  O  O29  1  0.82421850  0.45048150  0.59730300  1
  O  O30  1  0.90588500  0.76756500  0.35778600  1
  O  O31  1  0.00664550  0.90694250  0.75947500  1
