# generated using pymatgen
data_LiVSiO4
_symmetry_space_group_name_H-M   'P 1'
_cell_length_a   5.41385783
_cell_length_b   5.41385783
_cell_length_c   12.46377900
_cell_angle_alpha   90.00000000
_cell_angle_beta   90.00000000
_cell_angle_gamma   120.00000000
_symmetry_Int_Tables_number   1
_chemical_formula_structural   LiVSiO4
_chemical_formula_sum   'Li3 V3 Si3 O12'
_cell_volume   316.36910497
_cell_formula_units_Z   3
loop_
 _symmetry_equiv_pos_site_id
 _symmetry_equiv_pos_as_xyz
  1  'x, y, z'
loop_
 _atom_site_type_symbol
 _atom_site_label
 _atom_site_symmetry_multiplicity
 _atom_site_fract_x
 _atom_site_fract_y
 _atom_site_fract_z
 _atom_site_occupancy
  Li  Li0  1  0.00000000  0.00000000  0.00000000  1
  Li  Li1  1  0.00000000  0.00000000  0.33333333  1
  Li  Li2  1  0.00000000  0.00000000  0.66666667  1
  V  V3  1  0.50000000  0.50000000  0.16666667  1
  V  V4  1  0.50000000  0.00000000  0.50000000  1
  V  V5  1  0.00000000  0.50000000  0.83333333  1
  Si  Si6  1  0.00000000  0.50000000  0.33333333  1
  Si  Si7  1  0.50000000  0.50000000  0.66666667  1
  Si  Si8  1  0.50000000  0.00000000  0.00000000  1
  O  O9  1  0.18345400  0.78869400  0.40610650  1
  O  O10  1  0.21130600  0.81654600  0.92722683  1
  O  O11  1  0.18345400  0.39476000  0.26056017  1
  O  O12  1  0.21130600  0.39476000  0.73943983  1
  O  O13  1  0.60524000  0.81654600  0.07277317  1
  O  O14  1  0.60524000  0.78869400  0.59389350  1
  O  O15  1  0.39476000  0.21130600  0.59389350  1
  O  O16  1  0.39476000  0.18345400  0.07277317  1
  O  O17  1  0.78869400  0.60524000  0.73943983  1
  O  O18  1  0.81654600  0.60524000  0.26056017  1
  O  O19  1  0.78869400  0.18345400  0.92722683  1
  O  O20  1  0.81654600  0.21130600  0.40610650  1
