# generated using pymatgen
data_Li2Cu2F5
_symmetry_space_group_name_H-M   'P 1'
_cell_length_a   7.79336400
_cell_length_b   7.94277200
_cell_length_c   7.25360071
_cell_angle_alpha   90.00000000
_cell_angle_beta   108.10581082
_cell_angle_gamma   90.00000000
_symmetry_Int_Tables_number   1
_chemical_formula_structural   Li2Cu2F5
_chemical_formula_sum   'Li8 Cu8 F20'
_cell_volume   426.77169983
_cell_formula_units_Z   4
loop_
 _symmetry_equiv_pos_site_id
 _symmetry_equiv_pos_as_xyz
  1  'x, y, z'
loop_
 _atom_site_type_symbol
 _atom_site_label
 _atom_site_symmetry_multiplicity
 _atom_site_fract_x
 _atom_site_fract_y
 _atom_site_fract_z
 _atom_site_occupancy
  Li  Li0  1  0.51076000  0.23556100  0.02065200  1
  Li  Li1  1  0.48924000  0.23556100  0.47934800  1
  Li  Li2  1  0.51076000  0.76443900  0.52065200  1
  Li  Li3  1  0.48924000  0.76443900  0.97934800  1
  Li  Li4  1  0.01076000  0.73556100  0.02065200  1
  Li  Li5  1  0.98924000  0.73556100  0.47934800  1
  Li  Li6  1  0.01076000  0.26443900  0.52065200  1
  Li  Li7  1  0.98924000  0.26443900  0.97934800  1
  Cu  Cu8  1  0.79432100  0.00373700  0.12076800  1
  Cu  Cu9  1  0.79432100  0.99626300  0.62076800  1
  Cu  Cu10  1  0.20567900  0.00373700  0.37923200  1
  Cu  Cu11  1  0.20567900  0.99626300  0.87923200  1
  Cu  Cu12  1  0.29432100  0.50373700  0.12076800  1
  Cu  Cu13  1  0.29432100  0.49626300  0.62076800  1
  Cu  Cu14  1  0.70567900  0.50373700  0.37923200  1
  Cu  Cu15  1  0.70567900  0.49626300  0.87923200  1
  F  F16  1  0.75000000  0.25000000  0.00000000  1
  F  F17  1  0.82080200  0.10580100  0.37968100  1
  F  F18  1  0.50000000  0.33981500  0.25000000  1
  F  F19  1  0.50000000  0.00000000  0.00000000  1
  F  F20  1  0.82080200  0.89419900  0.87968100  1
  F  F21  1  0.75000000  0.75000000  0.50000000  1
  F  F22  1  0.50000000  0.00000000  0.50000000  1
  F  F23  1  0.17919800  0.10580100  0.12031900  1
  F  F24  1  0.50000000  0.66018500  0.75000000  1
  F  F25  1  0.17919800  0.89419900  0.62031900  1
  F  F26  1  0.25000000  0.75000000  0.00000000  1
  F  F27  1  0.32080200  0.60580100  0.37968100  1
  F  F28  1  0.00000000  0.83981500  0.25000000  1
  F  F29  1  0.00000000  0.50000000  0.00000000  1
  F  F30  1  0.32080200  0.39419900  0.87968100  1
  F  F31  1  0.25000000  0.25000000  0.50000000  1
  F  F32  1  0.00000000  0.50000000  0.50000000  1
  F  F33  1  0.67919800  0.60580100  0.12031900  1
  F  F34  1  0.00000000  0.16018500  0.75000000  1
  F  F35  1  0.67919800  0.39419900  0.62031900  1
