# generated using pymatgen
data_LiMnVP2(HO5)2
_symmetry_space_group_name_H-M   'P 1'
_cell_length_a   5.27846630
_cell_length_b   5.34025532
_cell_length_c   7.35443845
_cell_angle_alpha   110.42143140
_cell_angle_beta   103.56149038
_cell_angle_gamma   100.60909265
_symmetry_Int_Tables_number   1
_chemical_formula_structural   LiMnVP2(HO5)2
_chemical_formula_sum   'Li1 Mn1 V1 P2 H2 O10'
_cell_volume   180.63856682
_cell_formula_units_Z   1
loop_
 _symmetry_equiv_pos_site_id
 _symmetry_equiv_pos_as_xyz
  1  'x, y, z'
loop_
 _atom_site_type_symbol
 _atom_site_label
 _atom_site_symmetry_multiplicity
 _atom_site_fract_x
 _atom_site_fract_y
 _atom_site_fract_z
 _atom_site_occupancy
  Li  Li0  1  0.78859600  0.41725300  0.14496500  1
  Mn  Mn1  1  0.00050200  0.00769500  0.99623300  1
  V  V2  1  0.99861700  0.99739800  0.50455900  1
  P  P3  1  0.32163000  0.64982900  0.23187900  1
  P  P4  1  0.66999800  0.35041600  0.77266600  1
  H  H5  1  0.64928000  0.94986600  0.34286600  1
  H  H6  1  0.34406000  0.01065500  0.66784200  1
  O  O7  1  0.13530000  0.96593100  0.72112500  1
  O  O8  1  0.29273900  0.82809700  0.37367400  1
  O  O9  1  0.73523300  0.64978500  0.63470100  1
  O  O10  1  0.63749600  0.74240500  0.07709400  1
  O  O11  1  0.11669500  0.66370700  0.13060500  1
  O  O12  1  0.85690900  0.33836100  0.88965600  1
  O  O13  1  0.35724700  0.25522400  0.92436800  1
  O  O14  1  0.27670700  0.34928400  0.35594700  1
  O  O15  1  0.71390800  0.17263200  0.63033400  1
  O  O16  1  0.85403400  0.05329600  0.27695800  1
