# generated using pymatgen
data_Fe4OF7
_symmetry_space_group_name_H-M   'P 1'
_cell_length_a   11.62715400
_cell_length_b   9.63027400
_cell_length_c   5.79870242
_cell_angle_alpha   90.00000000
_cell_angle_beta   112.02473483
_cell_angle_gamma   90.00000000
_symmetry_Int_Tables_number   1
_chemical_formula_structural   Fe4OF7
_chemical_formula_sum   'Fe16 O4 F28'
_cell_volume   601.91193453
_cell_formula_units_Z   4
loop_
 _symmetry_equiv_pos_site_id
 _symmetry_equiv_pos_as_xyz
  1  'x, y, z'
loop_
 _atom_site_type_symbol
 _atom_site_label
 _atom_site_symmetry_multiplicity
 _atom_site_fract_x
 _atom_site_fract_y
 _atom_site_fract_z
 _atom_site_occupancy
  Fe  Fe0  1  0.12242500  0.36959000  0.48163200  1
  Fe  Fe1  1  0.37409800  0.37478600  0.99937300  1
  Fe  Fe2  1  0.37409800  0.62521400  0.49937300  1
  Fe  Fe3  1  0.88722700  0.63478500  0.51044700  1
  Fe  Fe4  1  0.12242500  0.63041000  0.98163200  1
  Fe  Fe5  1  0.12209050  0.12677950  0.01326300  1
  Fe  Fe6  1  0.12209050  0.87322050  0.51326300  1
  Fe  Fe7  1  0.88722700  0.36521500  0.01044700  1
  Fe  Fe8  1  0.62242500  0.86959000  0.48163200  1
  Fe  Fe9  1  0.87409800  0.87478600  0.99937300  1
  Fe  Fe10  1  0.87409800  0.12521400  0.49937300  1
  Fe  Fe11  1  0.38722700  0.13478500  0.51044700  1
  Fe  Fe12  1  0.62242500  0.13041000  0.98163200  1
  Fe  Fe13  1  0.62209050  0.62677950  0.01326300  1
  Fe  Fe14  1  0.62209050  0.37322050  0.51326300  1
  Fe  Fe15  1  0.38722700  0.86521500  0.01044700  1
  O  O16  1  0.03820850  0.27834450  0.13579900  1
  O  O17  1  0.03820850  0.72165550  0.63579900  1
  O  O18  1  0.53820850  0.77834450  0.13579900  1
  O  O19  1  0.53820850  0.22165550  0.63579900  1
  F  F20  1  0.05346000  0.21895000  0.65550300  1
  F  F21  1  0.19763350  0.47094050  0.84003600  1
  F  F22  1  0.44991850  0.47969150  0.34451300  1
  F  F23  1  0.93928850  0.47217750  0.34272900  1
  F  F24  1  0.19763350  0.52905950  0.34003600  1
  F  F25  1  0.44991850  0.52030850  0.84451300  1
  F  F26  1  0.93928850  0.52782250  0.84272900  1
  F  F27  1  0.80632800  0.72158700  0.16598600  1
  F  F28  1  0.79824450  0.22904550  0.14940200  1
  F  F29  1  0.79824450  0.77095450  0.64940200  1
  F  F30  1  0.80632800  0.27841300  0.66598600  1
  F  F31  1  0.05346000  0.78105000  0.15550300  1
  F  F32  1  0.71107800  0.46953800  0.86131900  1
  F  F33  1  0.71107800  0.53046200  0.36131900  1
  F  F34  1  0.55346000  0.71895000  0.65550300  1
  F  F35  1  0.69763350  0.97094050  0.84003600  1
  F  F36  1  0.94991850  0.97969150  0.34451300  1
  F  F37  1  0.43928850  0.97217750  0.34272900  1
  F  F38  1  0.69763350  0.02905950  0.34003600  1
  F  F39  1  0.94991850  0.02030850  0.84451300  1
  F  F40  1  0.43928850  0.02782250  0.84272900  1
  F  F41  1  0.30632800  0.22158700  0.16598600  1
  F  F42  1  0.29824450  0.72904550  0.14940200  1
  F  F43  1  0.29824450  0.27095450  0.64940200  1
  F  F44  1  0.30632800  0.77841300  0.66598600  1
  F  F45  1  0.55346000  0.28105000  0.15550300  1
  F  F46  1  0.21107800  0.96953800  0.86131900  1
  F  F47  1  0.21107800  0.03046200  0.36131900  1
