# generated using pymatgen
data_Li7Ti11O24
_symmetry_space_group_name_H-M   'P 1'
_cell_length_a   19.74359800
_cell_length_b   5.96701800
_cell_length_c   8.43598002
_cell_angle_alpha   90.00000000
_cell_angle_beta   115.14152105
_cell_angle_gamma   90.00000000
_symmetry_Int_Tables_number   1
_chemical_formula_structural   Li7Ti11O24
_chemical_formula_sum   'Li14 Ti22 O48'
_cell_volume   899.69037487
_cell_formula_units_Z   2
loop_
 _symmetry_equiv_pos_site_id
 _symmetry_equiv_pos_as_xyz
  1  'x, y, z'
loop_
 _atom_site_type_symbol
 _atom_site_label
 _atom_site_symmetry_multiplicity
 _atom_site_fract_x
 _atom_site_fract_y
 _atom_site_fract_z
 _atom_site_occupancy
  Li  Li0  1  0.08366000  0.00000000  0.20536600  1
  Li  Li1  1  0.25123400  0.50000000  0.87615300  1
  Li  Li2  1  0.24876600  0.00000000  0.12384700  1
  Li  Li3  1  0.08188000  0.50000000  0.45815700  1
  Li  Li4  1  0.41812000  0.00000000  0.54184300  1
  Li  Li5  1  0.41634000  0.50000000  0.79463400  1
  Li  Li6  1  0.00000000  0.50000000  0.00000000  1
  Li  Li7  1  0.58366000  0.50000000  0.20536600  1
  Li  Li8  1  0.75123400  0.00000000  0.87615300  1
  Li  Li9  1  0.74876600  0.50000000  0.12384700  1
  Li  Li10  1  0.58188000  0.00000000  0.45815700  1
  Li  Li11  1  0.91812000  0.50000000  0.54184300  1
  Li  Li12  1  0.91634000  0.00000000  0.79463400  1
  Li  Li13  1  0.50000000  0.00000000  0.00000000  1
  Ti  Ti14  1  0.33762600  0.00000000  0.83447800  1
  Ti  Ti15  1  0.16661200  0.00000000  0.66794900  1
  Ti  Ti16  1  0.41906450  0.75554450  0.16171300  1
  Ti  Ti17  1  0.41906450  0.24445550  0.16171300  1
  Ti  Ti18  1  0.33338800  0.50000000  0.33205100  1
  Ti  Ti19  1  0.00000000  0.00000000  0.50000000  1
  Ti  Ti20  1  0.16237400  0.50000000  0.16552200  1
  Ti  Ti21  1  0.08093550  0.25554450  0.83828700  1
  Ti  Ti22  1  0.25000000  0.75000000  0.50000000  1
  Ti  Ti23  1  0.08093550  0.74445550  0.83828700  1
  Ti  Ti24  1  0.25000000  0.25000000  0.50000000  1
  Ti  Ti25  1  0.83762600  0.50000000  0.83447800  1
  Ti  Ti26  1  0.66661200  0.50000000  0.66794900  1
  Ti  Ti27  1  0.91906450  0.25554450  0.16171300  1
  Ti  Ti28  1  0.91906450  0.74445550  0.16171300  1
  Ti  Ti29  1  0.83338800  0.00000000  0.33205100  1
  Ti  Ti30  1  0.50000000  0.50000000  0.50000000  1
  Ti  Ti31  1  0.66237400  0.00000000  0.16552200  1
  Ti  Ti32  1  0.58093550  0.75554450  0.83828700  1
  Ti  Ti33  1  0.75000000  0.25000000  0.50000000  1
  Ti  Ti34  1  0.58093550  0.24445550  0.83828700  1
  Ti  Ti35  1  0.75000000  0.75000000  0.50000000  1
  O  O36  1  0.17418200  0.50000000  0.41223800  1
  O  O37  1  0.17529800  0.00000000  0.43725600  1
  O  O38  1  0.24976300  0.77731600  0.73692900  1
  O  O39  1  0.24976300  0.22268400  0.73692900  1
  O  O40  1  0.41163500  0.76746000  0.92879300  1
  O  O41  1  0.41163500  0.23254000  0.92879300  1
  O  O42  1  0.34175900  0.00000000  0.07973200  1
  O  O43  1  0.48858800  0.00000000  0.23818500  1
  O  O44  1  0.15761300  0.00000000  0.89260900  1
  O  O45  1  0.49219300  0.50000000  0.25322700  1
  O  O46  1  0.34238700  0.50000000  0.10739100  1
  O  O47  1  0.15824100  0.50000000  0.92026800  1
  O  O48  1  0.41684950  0.27681150  0.40378700  1
  O  O49  1  0.41684950  0.72318850  0.40378700  1
  O  O50  1  0.25023700  0.27731600  0.26307100  1
  O  O51  1  0.08315050  0.22318850  0.59621300  1
  O  O52  1  0.25023700  0.72268400  0.26307100  1
  O  O53  1  0.08315050  0.77681150  0.59621300  1
  O  O54  1  0.00780700  0.00000000  0.74677300  1
  O  O55  1  0.32470200  0.50000000  0.56274400  1
  O  O56  1  0.01141200  0.50000000  0.76181500  1
  O  O57  1  0.32581800  0.00000000  0.58776200  1
  O  O58  1  0.08836500  0.26746000  0.07120700  1
  O  O59  1  0.08836500  0.73254000  0.07120700  1
  O  O60  1  0.67418200  0.00000000  0.41223800  1
  O  O61  1  0.67529800  0.50000000  0.43725600  1
  O  O62  1  0.74976300  0.27731600  0.73692900  1
  O  O63  1  0.74976300  0.72268400  0.73692900  1
  O  O64  1  0.91163500  0.26746000  0.92879300  1
  O  O65  1  0.91163500  0.73254000  0.92879300  1
  O  O66  1  0.84175900  0.50000000  0.07973200  1
  O  O67  1  0.98858800  0.50000000  0.23818500  1
  O  O68  1  0.65761300  0.50000000  0.89260900  1
  O  O69  1  0.99219300  0.00000000  0.25322700  1
  O  O70  1  0.84238700  0.00000000  0.10739100  1
  O  O71  1  0.65824100  0.00000000  0.92026800  1
  O  O72  1  0.91684950  0.77681150  0.40378700  1
  O  O73  1  0.91684950  0.22318850  0.40378700  1
  O  O74  1  0.75023700  0.77731600  0.26307100  1
  O  O75  1  0.58315050  0.72318850  0.59621300  1
  O  O76  1  0.75023700  0.22268400  0.26307100  1
  O  O77  1  0.58315050  0.27681150  0.59621300  1
  O  O78  1  0.50780700  0.50000000  0.74677300  1
  O  O79  1  0.82470200  0.00000000  0.56274400  1
  O  O80  1  0.51141200  0.00000000  0.76181500  1
  O  O81  1  0.82581800  0.50000000  0.58776200  1
  O  O82  1  0.58836500  0.76746000  0.07120700  1
  O  O83  1  0.58836500  0.23254000  0.07120700  1
