# generated using pymatgen
data_Li3Ti4O8
_symmetry_space_group_name_H-M   'P 1'
_cell_length_a   5.94637845
_cell_length_b   5.94637845
_cell_length_c   14.70679458
_cell_angle_alpha   90.00000000
_cell_angle_beta   90.00000000
_cell_angle_gamma   120.00000000
_symmetry_Int_Tables_number   1
_chemical_formula_structural   Li3Ti4O8
_chemical_formula_sum   'Li9 Ti12 O24'
_cell_volume   450.35371575
_cell_formula_units_Z   3
loop_
 _symmetry_equiv_pos_site_id
 _symmetry_equiv_pos_as_xyz
  1  'x, y, z'
loop_
 _atom_site_type_symbol
 _atom_site_label
 _atom_site_symmetry_multiplicity
 _atom_site_fract_x
 _atom_site_fract_y
 _atom_site_fract_z
 _atom_site_occupancy
  Li  Li0  1  0.50000000  0.50000000  0.00000000  1
  Li  Li1  1  0.50000000  0.00000000  0.00000000  1
  Li  Li2  1  0.00000000  0.50000000  0.00000000  1
  Li  Li3  1  0.16666667  0.83333333  0.33333333  1
  Li  Li4  1  0.16666667  0.33333333  0.33333333  1
  Li  Li5  1  0.66666667  0.83333333  0.33333333  1
  Li  Li6  1  0.83333333  0.16666667  0.66666667  1
  Li  Li7  1  0.83333333  0.66666667  0.66666667  1
  Li  Li8  1  0.33333333  0.16666667  0.66666667  1
  Ti  Ti9  1  0.83333333  0.16666667  0.16666667  1
  Ti  Ti10  1  0.00000000  0.00000000  0.00000000  1
  Ti  Ti11  1  0.33333333  0.16666667  0.16666667  1
  Ti  Ti12  1  0.83333333  0.66666667  0.16666667  1
  Ti  Ti13  1  0.50000000  0.50000000  0.50000000  1
  Ti  Ti14  1  0.66666667  0.33333333  0.33333333  1
  Ti  Ti15  1  0.00000000  0.50000000  0.50000000  1
  Ti  Ti16  1  0.50000000  0.00000000  0.50000000  1
  Ti  Ti17  1  0.16666667  0.83333333  0.83333333  1
  Ti  Ti18  1  0.33333333  0.66666667  0.66666667  1
  Ti  Ti19  1  0.66666667  0.83333333  0.83333333  1
  Ti  Ti20  1  0.16666667  0.33333333  0.83333333  1
  O  O21  1  0.15331233  0.84668767  0.08422867  1
  O  O22  1  0.00000000  0.00000000  0.24468200  1
  O  O23  1  0.97329133  0.48664567  0.24910467  1
  O  O24  1  0.15331233  0.30662467  0.08422867  1
  O  O25  1  0.51335433  0.02670867  0.24910467  1
  O  O26  1  0.69337533  0.84668767  0.08422867  1
  O  O27  1  0.66666667  0.33333333  0.08865133  1
  O  O28  1  0.51335433  0.48664567  0.24910467  1
  O  O29  1  0.81997900  0.18002100  0.41756200  1
  O  O30  1  0.66666667  0.33333333  0.57801533  1
  O  O31  1  0.63995800  0.81997900  0.58243800  1
  O  O32  1  0.81997900  0.63995800  0.41756200  1
  O  O33  1  0.18002100  0.36004200  0.58243800  1
  O  O34  1  0.36004200  0.18002100  0.41756200  1
  O  O35  1  0.33333333  0.66666667  0.42198467  1
  O  O36  1  0.18002100  0.81997900  0.58243800  1
  O  O37  1  0.48664567  0.51335433  0.75089533  1
  O  O38  1  0.33333333  0.66666667  0.91134867  1
  O  O39  1  0.30662467  0.15331233  0.91577133  1
  O  O40  1  0.48664567  0.97329133  0.75089533  1
  O  O41  1  0.84668767  0.69337533  0.91577133  1
  O  O42  1  0.02670867  0.51335433  0.75089533  1
  O  O43  1  0.00000000  0.00000000  0.75531800  1
  O  O44  1  0.84668767  0.15331233  0.91577133  1
