# generated using pymatgen
data_Li8VCo3(PO4)6
_symmetry_space_group_name_H-M   'P 1'
_cell_length_a   8.93662181
_cell_length_b   8.93662181
_cell_length_c   20.73596304
_cell_angle_alpha   90.00000000
_cell_angle_beta   90.00000000
_cell_angle_gamma   120.00000000
_symmetry_Int_Tables_number   1
_chemical_formula_structural   Li8VCo3(PO4)6
_chemical_formula_sum   'Li24 V3 Co9 P18 O72'
_cell_volume   1434.17319191
_cell_formula_units_Z   3
loop_
 _symmetry_equiv_pos_site_id
 _symmetry_equiv_pos_as_xyz
  1  'x, y, z'
loop_
 _atom_site_type_symbol
 _atom_site_label
 _atom_site_symmetry_multiplicity
 _atom_site_fract_x
 _atom_site_fract_y
 _atom_site_fract_z
 _atom_site_occupancy
  Li  Li0  1  0.33333333  0.66666667  0.64907667  1
  Li  Li1  1  0.39386433  0.42518467  0.26079767  1
  Li  Li2  1  0.03132033  0.60613567  0.26079767  1
  Li  Li3  1  0.57481533  0.96867967  0.26079767  1
  Li  Li4  1  0.33333333  0.66666667  0.17451267  1
  Li  Li5  1  0.08385833  0.34947867  0.06549567  1
  Li  Li6  1  0.65052133  0.73437967  0.06549567  1
  Li  Li7  1  0.26562033  0.91614167  0.06549567  1
  Li  Li8  1  0.00000000  0.00000000  0.98241000  1
  Li  Li9  1  0.06053100  0.75851800  0.59413100  1
  Li  Li10  1  0.69798700  0.93946900  0.59413100  1
  Li  Li11  1  0.24148200  0.30201300  0.59413100  1
  Li  Li12  1  0.00000000  0.00000000  0.50784600  1
  Li  Li13  1  0.75052500  0.68281200  0.39882900  1
  Li  Li14  1  0.31718800  0.06771300  0.39882900  1
  Li  Li15  1  0.93228700  0.24947500  0.39882900  1
  Li  Li16  1  0.66666667  0.33333333  0.31574333  1
  Li  Li17  1  0.72719767  0.09185133  0.92746433  1
  Li  Li18  1  0.36465367  0.27280233  0.92746433  1
  Li  Li19  1  0.90814867  0.63534633  0.92746433  1
  Li  Li20  1  0.66666667  0.33333333  0.84117933  1
  Li  Li21  1  0.41719167  0.01614533  0.73216233  1
  Li  Li22  1  0.98385467  0.40104633  0.73216233  1
  Li  Li23  1  0.59895367  0.58280833  0.73216233  1
  V  V24  1  0.33333333  0.66666667  0.81222067  1
  V  V25  1  0.00000000  0.00000000  0.14555400  1
  V  V26  1  0.66666667  0.33333333  0.47888733  1
  Co  Co27  1  0.33333333  0.66666667  0.31731867  1
  Co  Co28  1  0.33333333  0.66666667  0.51868267  1
  Co  Co29  1  0.33333333  0.66666667  0.02076567  1
  Co  Co30  1  0.00000000  0.00000000  0.65065200  1
  Co  Co31  1  0.00000000  0.00000000  0.85201600  1
  Co  Co32  1  0.00000000  0.00000000  0.35409900  1
  Co  Co33  1  0.66666667  0.33333333  0.98398533  1
  Co  Co34  1  0.66666667  0.33333333  0.18534933  1
  Co  Co35  1  0.66666667  0.33333333  0.68743233  1
  P  P36  1  0.00339667  0.29688433  0.25087033  1
  P  P37  1  0.70311567  0.70651233  0.25087033  1
  P  P38  1  0.29348767  0.99660333  0.25087033  1
  P  P39  1  0.36469433  0.32704367  0.08484267  1
  P  P40  1  0.96234933  0.63530567  0.08484267  1
  P  P41  1  0.67295633  0.03765067  0.08484267  1
  P  P42  1  0.67006333  0.63021767  0.58420367  1
  P  P43  1  0.36978233  0.03984567  0.58420367  1
  P  P44  1  0.96015433  0.32993667  0.58420367  1
  P  P45  1  0.03136100  0.66037700  0.41817600  1
  P  P46  1  0.62901600  0.96863900  0.41817600  1
  P  P47  1  0.33962300  0.37098400  0.41817600  1
  P  P48  1  0.33673000  0.96355100  0.91753700  1
  P  P49  1  0.03644900  0.37317900  0.91753700  1
  P  P50  1  0.62682100  0.66327000  0.91753700  1
  P  P51  1  0.69802767  0.99371033  0.75150933  1
  P  P52  1  0.29568267  0.30197233  0.75150933  1
  P  P53  1  0.00628967  0.70431733  0.75150933  1
  O  O54  1  0.85885867  0.34596533  0.25371133  1
  O  O55  1  0.18097967  0.46819933  0.24335333  1
  O  O56  1  0.65403467  0.51289333  0.25371133  1
  O  O57  1  0.13166733  0.45557667  0.98024067  1
  O  O58  1  0.53180067  0.71278033  0.24335333  1
  O  O59  1  0.54442333  0.67609067  0.98024067  1
  O  O60  1  0.46167400  0.32738600  0.14444800  1
  O  O61  1  0.28721967  0.81902033  0.24335333  1
  O  O62  1  0.16874867  0.17136833  0.08342933  1
  O  O63  1  0.32390933  0.86833267  0.98024067  1
  O  O64  1  0.86571200  0.53832600  0.14444800  1
  O  O65  1  0.15158800  0.47352000  0.85807500  1
  O  O66  1  0.36419567  0.47149633  0.35466833  1
  O  O67  1  0.48710667  0.14114133  0.25371133  1
  O  O68  1  0.34471833  0.49030767  0.08585567  1
  O  O69  1  0.10730067  0.63580433  0.35466833  1
  O  O70  1  0.52648000  0.67806800  0.85807500  1
  O  O71  1  0.14558933  0.65528167  0.08585567  1
  O  O72  1  0.32193200  0.84841200  0.85807500  1
  O  O73  1  0.52850367  0.89269933  0.35466833  1
  O  O74  1  0.00261967  0.83125133  0.08342933  1
  O  O75  1  0.50969233  0.85441067  0.08585567  1
  O  O76  1  0.67261400  0.13428800  0.14444800  1
  O  O77  1  0.82863167  0.99738033  0.08342933  1
  O  O78  1  0.52552533  0.67929867  0.58704467  1
  O  O79  1  0.84764633  0.80153267  0.57668667  1
  O  O80  1  0.32070133  0.84622667  0.58704467  1
  O  O81  1  0.79833400  0.78891000  0.31357400  1
  O  O82  1  0.19846733  0.04611367  0.57668667  1
  O  O83  1  0.21109000  0.00942400  0.31357400  1
  O  O84  1  0.12834067  0.66071933  0.47778133  1
  O  O85  1  0.95388633  0.15235367  0.57668667  1
  O  O86  1  0.83541533  0.50470167  0.41676267  1
  O  O87  1  0.99057600  0.20166600  0.31357400  1
  O  O88  1  0.53237867  0.87165933  0.47778133  1
  O  O89  1  0.81825467  0.80685333  0.19140833  1
  O  O90  1  0.03086233  0.80482967  0.68800167  1
  O  O91  1  0.15377333  0.47447467  0.58704467  1
  O  O92  1  0.01138500  0.82364100  0.41918900  1
  O  O93  1  0.77396733  0.96913767  0.68800167  1
  O  O94  1  0.19314667  0.01140133  0.19140833  1
  O  O95  1  0.81225600  0.98861500  0.41918900  1
  O  O96  1  0.98859867  0.18174533  0.19140833  1
  O  O97  1  0.19517033  0.22603267  0.68800167  1
  O  O98  1  0.66928633  0.16458467  0.41676267  1
  O  O99  1  0.17635900  0.18774400  0.41918900  1
  O  O100  1  0.33928067  0.46762133  0.47778133  1
  O  O101  1  0.49529833  0.33071367  0.41676267  1
  O  O102  1  0.19219200  0.01263200  0.92037800  1
  O  O103  1  0.51431300  0.13486600  0.91002000  1
  O  O104  1  0.98736800  0.17956000  0.92037800  1
  O  O105  1  0.46500067  0.12224333  0.64690733  1
  O  O106  1  0.86513400  0.37944700  0.91002000  1
  O  O107  1  0.87775667  0.34275733  0.64690733  1
  O  O108  1  0.79500733  0.99405267  0.81111467  1
  O  O109  1  0.62055300  0.48568700  0.91002000  1
  O  O110  1  0.50208200  0.83803500  0.75009600  1
  O  O111  1  0.65724267  0.53499933  0.64690733  1
  O  O112  1  0.19904533  0.20499267  0.81111467  1
  O  O113  1  0.48492133  0.14018667  0.52474167  1
  O  O114  1  0.69752900  0.13816300  0.02133500  1
  O  O115  1  0.82044000  0.80780800  0.92037800  1
  O  O116  1  0.67805167  0.15697433  0.75252233  1
  O  O117  1  0.44063400  0.30247100  0.02133500  1
  O  O118  1  0.85981333  0.34473467  0.52474167  1
  O  O119  1  0.47892267  0.32194833  0.75252233  1
  O  O120  1  0.65526533  0.51507867  0.52474167  1
  O  O121  1  0.86183700  0.55936600  0.02133500  1
  O  O122  1  0.33595300  0.49791800  0.75009600  1
  O  O123  1  0.84302567  0.52107733  0.75252233  1
  O  O124  1  0.00594733  0.80095467  0.81111467  1
  O  O125  1  0.16196500  0.66404700  0.75009600  1
