# generated using pymatgen
data_LuWO4
_symmetry_space_group_name_H-M   'P 1'
_cell_length_a   5.17957200
_cell_length_b   5.17957200
_cell_length_c   10.83481600
_cell_angle_alpha   90.00000000
_cell_angle_beta   90.00000000
_cell_angle_gamma   90.00000000
_symmetry_Int_Tables_number   1
_chemical_formula_structural   LuWO4
_chemical_formula_sum   'Lu4 W4 O16'
_cell_volume   290.67607638
_cell_formula_units_Z   4
loop_
 _symmetry_equiv_pos_site_id
 _symmetry_equiv_pos_as_xyz
  1  'x, y, z'
loop_
 _atom_site_type_symbol
 _atom_site_label
 _atom_site_symmetry_multiplicity
 _atom_site_fract_x
 _atom_site_fract_y
 _atom_site_fract_z
 _atom_site_occupancy
  Lu  Lu0  1  0.50000000  0.00000000  0.25000000  1
  Lu  Lu1  1  0.50000000  0.50000000  0.00000000  1
  Lu  Lu2  1  0.00000000  0.50000000  0.75000000  1
  Lu  Lu3  1  0.00000000  0.00000000  0.50000000  1
  W  W4  1  0.00000000  0.00000000  0.00000000  1
  W  W5  1  0.00000000  0.50000000  0.25000000  1
  W  W6  1  0.50000000  0.50000000  0.50000000  1
  W  W7  1  0.50000000  0.00000000  0.75000000  1
  O  O8  1  0.19470700  0.75445400  0.33910000  1
  O  O9  1  0.25445400  0.80529300  0.08910000  1
  O  O10  1  0.74554600  0.19470700  0.08910000  1
  O  O11  1  0.69470700  0.75445400  0.41090000  1
  O  O12  1  0.80529300  0.24554600  0.33910000  1
  O  O13  1  0.25445400  0.30529300  0.16090000  1
  O  O14  1  0.74554600  0.69470700  0.16090000  1
  O  O15  1  0.30529300  0.24554600  0.41090000  1
  O  O16  1  0.69470700  0.25445400  0.83910000  1
  O  O17  1  0.75445400  0.30529300  0.58910000  1
  O  O18  1  0.24554600  0.69470700  0.58910000  1
  O  O19  1  0.19470700  0.25445400  0.91090000  1
  O  O20  1  0.30529300  0.74554600  0.83910000  1
  O  O21  1  0.75445400  0.80529300  0.66090000  1
  O  O22  1  0.24554600  0.19470700  0.66090000  1
  O  O23  1  0.80529300  0.74554600  0.91090000  1
