# generated using pymatgen
data_Li3Co2NiO6
_symmetry_space_group_name_H-M   'P 1'
_cell_length_a   12.69022001
_cell_length_b   2.85724184
_cell_length_c   11.56038348
_cell_angle_alpha   90.00000000
_cell_angle_beta   103.69768426
_cell_angle_gamma   90.00000000
_symmetry_Int_Tables_number   1
_chemical_formula_structural   Li3Co2NiO6
_chemical_formula_sum   'Li12 Co8 Ni4 O24'
_cell_volume   407.24656987
_cell_formula_units_Z   4
loop_
 _symmetry_equiv_pos_site_id
 _symmetry_equiv_pos_as_xyz
  1  'x, y, z'
loop_
 _atom_site_type_symbol
 _atom_site_label
 _atom_site_symmetry_multiplicity
 _atom_site_fract_x
 _atom_site_fract_y
 _atom_site_fract_z
 _atom_site_occupancy
  Li  Li0  1  0.00000000  0.00000000  0.50000000  1
  Li  Li1  1  0.00000000  0.00000000  0.00000000  1
  Li  Li2  1  0.33235450  0.00000000  0.33359300  1
  Li  Li3  1  0.33213200  0.00000000  0.82773200  1
  Li  Li4  1  0.16786800  0.50000000  0.17226800  1
  Li  Li5  1  0.16764550  0.50000000  0.66640700  1
  Li  Li6  1  0.50000000  0.50000000  0.50000000  1
  Li  Li7  1  0.50000000  0.50000000  0.00000000  1
  Li  Li8  1  0.83235450  0.50000000  0.33359300  1
  Li  Li9  1  0.83213200  0.50000000  0.82773200  1
  Li  Li10  1  0.66786800  0.00000000  0.17226800  1
  Li  Li11  1  0.66764550  0.00000000  0.66640700  1
  Co  Co12  1  0.33284600  0.00000000  0.08381400  1
  Co  Co13  1  0.16888600  0.50000000  0.41760600  1
  Co  Co14  1  0.33111400  0.00000000  0.58239400  1
  Co  Co15  1  0.16715400  0.50000000  0.91618600  1
  Co  Co16  1  0.83284600  0.50000000  0.08381400  1
  Co  Co17  1  0.66888600  0.00000000  0.41760600  1
  Co  Co18  1  0.83111400  0.50000000  0.58239400  1
  Co  Co19  1  0.66715400  0.00000000  0.91618600  1
  Ni  Ni20  1  0.99965600  0.00000000  0.74962200  1
  Ni  Ni21  1  0.00034400  0.00000000  0.25037800  1
  Ni  Ni22  1  0.49965600  0.50000000  0.74962200  1
  Ni  Ni23  1  0.50034400  0.50000000  0.25037800  1
  O  O24  1  0.33286650  0.50000000  0.19539400  1
  O  O25  1  0.33265550  0.50000000  0.69815400  1
  O  O26  1  0.16734450  0.00000000  0.30184600  1
  O  O27  1  0.16713350  0.00000000  0.80460600  1
  O  O28  1  0.01298650  0.50000000  0.37179200  1
  O  O29  1  0.01752350  0.50000000  0.87692300  1
  O  O30  1  0.98247650  0.50000000  0.12307700  1
  O  O31  1  0.98701350  0.50000000  0.62820800  1
  O  O32  1  0.17516300  0.00000000  0.53328200  1
  O  O33  1  0.17507200  0.00000000  0.03083700  1
  O  O34  1  0.32483700  0.50000000  0.46671800  1
  O  O35  1  0.32492800  0.50000000  0.96916300  1
  O  O36  1  0.83286650  0.00000000  0.19539400  1
  O  O37  1  0.83265550  0.00000000  0.69815400  1
  O  O38  1  0.66734450  0.50000000  0.30184600  1
  O  O39  1  0.66713350  0.50000000  0.80460600  1
  O  O40  1  0.51298650  0.00000000  0.37179200  1
  O  O41  1  0.51752350  0.00000000  0.87692300  1
  O  O42  1  0.48247650  0.00000000  0.12307700  1
  O  O43  1  0.48701350  0.00000000  0.62820800  1
  O  O44  1  0.67516300  0.50000000  0.53328200  1
  O  O45  1  0.67507200  0.50000000  0.03083700  1
  O  O46  1  0.82483700  0.00000000  0.46671800  1
  O  O47  1  0.82492800  0.00000000  0.96916300  1
