# generated using pymatgen
data_Fe4O7F
_symmetry_space_group_name_H-M   'P 1'
_cell_length_a   6.00323200
_cell_length_b   4.64710100
_cell_length_c   9.26615347
_cell_angle_alpha   90.00000000
_cell_angle_beta   90.39791969
_cell_angle_gamma   90.00000000
_symmetry_Int_Tables_number   1
_chemical_formula_structural   Fe4O7F
_chemical_formula_sum   'Fe8 O14 F2'
_cell_volume   258.49744440
_cell_formula_units_Z   2
loop_
 _symmetry_equiv_pos_site_id
 _symmetry_equiv_pos_as_xyz
  1  'x, y, z'
loop_
 _atom_site_type_symbol
 _atom_site_label
 _atom_site_symmetry_multiplicity
 _atom_site_fract_x
 _atom_site_fract_y
 _atom_site_fract_z
 _atom_site_occupancy
  Fe  Fe0  1  0.37712700  0.49672500  0.12867100  1
  Fe  Fe1  1  0.87418100  0.47446700  0.11776300  1
  Fe  Fe2  1  0.38212600  0.51765200  0.62072000  1
  Fe  Fe3  1  0.86842200  0.51237400  0.61822200  1
  Fe  Fe4  1  0.61787400  0.01765200  0.37928000  1
  Fe  Fe5  1  0.13157800  0.01237400  0.38177800  1
  Fe  Fe6  1  0.62287300  0.99672500  0.87132900  1
  Fe  Fe7  1  0.12581900  0.97446700  0.88223700  1
  O  O8  1  0.62709500  0.71542200  0.52286100  1
  O  O9  1  0.12565000  0.69793700  0.53052900  1
  O  O10  1  0.62591600  0.67692300  0.02975400  1
  O  O11  1  0.12458600  0.67400500  0.03272700  1
  O  O12  1  0.37714600  0.82045800  0.28038200  1
  O  O13  1  0.37196100  0.80404600  0.77830300  1
  O  O14  1  0.87572600  0.80539800  0.77866900  1
  O  O15  1  0.37290500  0.21542200  0.47713900  1
  O  O16  1  0.87435000  0.19793700  0.46947100  1
  O  O17  1  0.37408400  0.17692300  0.97024600  1
  O  O18  1  0.87541400  0.17400500  0.96727300  1
  O  O19  1  0.62803900  0.30404600  0.22169700  1
  O  O20  1  0.12427400  0.30539800  0.22133100  1
  O  O21  1  0.62285400  0.32045800  0.71961800  1
  F  F22  1  0.87779100  0.80459400  0.27551600  1
  F  F23  1  0.12220900  0.30459400  0.72448400  1
