# generated using pymatgen
data_Li2NbCr3O8
_symmetry_space_group_name_H-M   'P 1'
_cell_length_a   5.98710264
_cell_length_b   5.98710264
_cell_length_c   9.62720700
_cell_angle_alpha   90.00000000
_cell_angle_beta   90.00000000
_cell_angle_gamma   120.00000000
_symmetry_Int_Tables_number   1
_chemical_formula_structural   Li2NbCr3O8
_chemical_formula_sum   'Li4 Nb2 Cr6 O16'
_cell_volume   298.85763048
_cell_formula_units_Z   2
loop_
 _symmetry_equiv_pos_site_id
 _symmetry_equiv_pos_as_xyz
  1  'x, y, z'
loop_
 _atom_site_type_symbol
 _atom_site_label
 _atom_site_symmetry_multiplicity
 _atom_site_fract_x
 _atom_site_fract_y
 _atom_site_fract_z
 _atom_site_occupancy
  Li  Li0  1  0.33333333  0.66666667  0.90133800  1
  Li  Li1  1  0.00000000  0.00000000  0.99255300  1
  Li  Li2  1  0.00000000  0.00000000  0.49255300  1
  Li  Li3  1  0.66666667  0.33333333  0.40133800  1
  Nb  Nb4  1  0.33333333  0.66666667  0.49299800  1
  Nb  Nb5  1  0.66666667  0.33333333  0.99299800  1
  Cr  Cr6  1  0.17014450  0.82985550  0.21519600  1
  Cr  Cr7  1  0.17014450  0.34028900  0.21519600  1
  Cr  Cr8  1  0.65971100  0.82985550  0.21519600  1
  Cr  Cr9  1  0.34028900  0.17014450  0.71519600  1
  Cr  Cr10  1  0.82985550  0.65971100  0.71519600  1
  Cr  Cr11  1  0.82985550  0.17014450  0.71519600  1
  O  O12  1  0.16689400  0.83310600  0.59389000  1
  O  O13  1  0.04005700  0.52002850  0.34121500  1
  O  O14  1  0.33333333  0.66666667  0.10812800  1
  O  O15  1  0.00000000  0.00000000  0.30771800  1
  O  O16  1  0.00000000  0.00000000  0.80771800  1
  O  O17  1  0.16689400  0.33378800  0.59389000  1
  O  O18  1  0.47997150  0.95994300  0.34121500  1
  O  O19  1  0.47997150  0.52002850  0.34121500  1
  O  O20  1  0.33378800  0.16689400  0.09389000  1
  O  O21  1  0.66621200  0.83310600  0.59389000  1
  O  O22  1  0.52002850  0.47997150  0.84121500  1
  O  O23  1  0.52002850  0.04005700  0.84121500  1
  O  O24  1  0.66666667  0.33333333  0.60812800  1
  O  O25  1  0.83310600  0.66621200  0.09389000  1
  O  O26  1  0.95994300  0.47997150  0.84121500  1
  O  O27  1  0.83310600  0.16689400  0.09389000  1
