# generated using pymatgen
data_Li2Mn2OF6
_symmetry_space_group_name_H-M   'P 1'
_cell_length_a   5.72697792
_cell_length_b   7.03408311
_cell_length_c   7.42273654
_cell_angle_alpha   62.79769397
_cell_angle_beta   71.13477187
_cell_angle_gamma   78.82416209
_symmetry_Int_Tables_number   1
_chemical_formula_structural   Li2Mn2OF6
_chemical_formula_sum   'Li4 Mn4 O2 F12'
_cell_volume   251.28335762
_cell_formula_units_Z   2
loop_
 _symmetry_equiv_pos_site_id
 _symmetry_equiv_pos_as_xyz
  1  'x, y, z'
loop_
 _atom_site_type_symbol
 _atom_site_label
 _atom_site_symmetry_multiplicity
 _atom_site_fract_x
 _atom_site_fract_y
 _atom_site_fract_z
 _atom_site_occupancy
  Li  Li0  1  0.68958400  0.60597300  0.78792100  1
  Li  Li1  1  0.21027600  0.86981900  0.91929500  1
  Li  Li2  1  0.78972400  0.13018100  0.08070500  1
  Li  Li3  1  0.31041600  0.39402700  0.21207900  1
  Mn  Mn4  1  0.77777500  0.13802700  0.59163200  1
  Mn  Mn5  1  0.65871300  0.58333000  0.27807300  1
  Mn  Mn6  1  0.34128700  0.41667000  0.72192700  1
  Mn  Mn7  1  0.22222500  0.86197300  0.40836800  1
  O  O8  1  0.49881800  0.68065500  0.50058200  1
  O  O9  1  0.50118200  0.31934500  0.49941800  1
  F  F10  1  0.97303800  0.38081600  0.38690800  1
  F  F11  1  0.58060700  0.89847900  0.75575300  1
  F  F12  1  0.84085500  0.82942100  0.09383800  1
  F  F13  1  0.68453000  0.28217400  0.80822000  1
  F  F14  1  0.92890300  0.02447000  0.33864800  1
  F  F15  1  0.71057300  0.46205400  0.07916400  1
  F  F16  1  0.28942700  0.53794600  0.92083600  1
  F  F17  1  0.07109700  0.97553000  0.66135200  1
  F  F18  1  0.31547000  0.71782600  0.19178000  1
  F  F19  1  0.15914500  0.17057900  0.90616200  1
  F  F20  1  0.41939300  0.10152100  0.24424700  1
  F  F21  1  0.02696200  0.61918400  0.61309200  1
