# generated using pymatgen
data_Li4Fe2OF8
_symmetry_space_group_name_H-M   'P 1'
_cell_length_a   8.84222600
_cell_length_b   5.11546400
_cell_length_c   14.02581461
_cell_angle_alpha   90.00000000
_cell_angle_beta   90.11160699
_cell_angle_gamma   90.00000000
_symmetry_Int_Tables_number   1
_chemical_formula_structural   Li4Fe2OF8
_chemical_formula_sum   'Li16 Fe8 O4 F32'
_cell_volume   634.41568807
_cell_formula_units_Z   4
loop_
 _symmetry_equiv_pos_site_id
 _symmetry_equiv_pos_as_xyz
  1  'x, y, z'
loop_
 _atom_site_type_symbol
 _atom_site_label
 _atom_site_symmetry_multiplicity
 _atom_site_fract_x
 _atom_site_fract_y
 _atom_site_fract_z
 _atom_site_occupancy
  Li  Li0  1  0.67434000  0.99451900  0.30966200  1
  Li  Li1  1  0.66285950  0.99431150  0.01596500  1
  Li  Li2  1  0.67434000  0.00548100  0.80966200  1
  Li  Li3  1  0.66285950  0.00568850  0.51596500  1
  Li  Li4  1  0.33208200  0.01911500  0.18986000  1
  Li  Li5  1  0.33208200  0.98088500  0.68986000  1
  Li  Li6  1  0.32922150  0.99478950  0.98390900  1
  Li  Li7  1  0.32922150  0.00521050  0.48390900  1
  Li  Li8  1  0.17434000  0.49451900  0.30966200  1
  Li  Li9  1  0.16285950  0.49431150  0.01596500  1
  Li  Li10  1  0.17434000  0.50548100  0.80966200  1
  Li  Li11  1  0.16285950  0.50568850  0.51596500  1
  Li  Li12  1  0.83208200  0.51911500  0.18986000  1
  Li  Li13  1  0.83208200  0.48088500  0.68986000  1
  Li  Li14  1  0.82922150  0.49478950  0.98390900  1
  Li  Li15  1  0.82922150  0.50521050  0.48390900  1
  Fe  Fe16  1  0.99049200  0.99438100  0.14913200  1
  Fe  Fe17  1  0.99049200  0.00561900  0.64913200  1
  Fe  Fe18  1  0.49348300  0.49046700  0.35043800  1
  Fe  Fe19  1  0.49348300  0.50953300  0.85043800  1
  Fe  Fe20  1  0.49049200  0.49438100  0.14913200  1
  Fe  Fe21  1  0.49049200  0.50561900  0.64913200  1
  Fe  Fe22  1  0.99348300  0.99046700  0.35043800  1
  Fe  Fe23  1  0.99348300  0.00953300  0.85043800  1
  O  O24  1  0.86346900  0.86619100  0.24971900  1
  O  O25  1  0.86346900  0.13380900  0.74971900  1
  O  O26  1  0.36346900  0.36619100  0.24971900  1
  O  O27  1  0.36346900  0.63380900  0.74971900  1
  F  F28  1  0.15823950  0.14074850  0.75161000  1
  F  F29  1  0.65908650  0.67930350  0.41235500  1
  F  F30  1  0.51221800  0.83355100  0.91833100  1
  F  F31  1  0.82483150  0.84322850  0.91750000  1
  F  F32  1  0.82483150  0.15677150  0.41750000  1
  F  F33  1  0.51221800  0.16644900  0.41833100  1
  F  F34  1  0.33695650  0.68442350  0.07903500  1
  F  F35  1  0.50774750  0.80676450  0.24744200  1
  F  F36  1  0.65908650  0.32069650  0.91235500  1
  F  F37  1  0.49113500  0.83820000  0.58151400  1
  F  F38  1  0.15823950  0.85925150  0.25161000  1
  F  F39  1  0.17118850  0.85375650  0.58664700  1
  F  F40  1  0.17118850  0.14624350  0.08664700  1
  F  F41  1  0.49113500  0.16180000  0.08151400  1
  F  F42  1  0.50774750  0.19323550  0.74744200  1
  F  F43  1  0.33695650  0.31557650  0.57903500  1
  F  F44  1  0.65823950  0.64074850  0.75161000  1
  F  F45  1  0.15908650  0.17930350  0.41235500  1
  F  F46  1  0.01221800  0.33355100  0.91833100  1
  F  F47  1  0.32483150  0.34322850  0.91750000  1
  F  F48  1  0.32483150  0.65677150  0.41750000  1
  F  F49  1  0.01221800  0.66644900  0.41833100  1
  F  F50  1  0.83695650  0.18442350  0.07903500  1
  F  F51  1  0.00774750  0.30676450  0.24744200  1
  F  F52  1  0.15908650  0.82069650  0.91235500  1
  F  F53  1  0.99113500  0.33820000  0.58151400  1
  F  F54  1  0.65823950  0.35925150  0.25161000  1
  F  F55  1  0.67118850  0.35375650  0.58664700  1
  F  F56  1  0.67118850  0.64624350  0.08664700  1
  F  F57  1  0.99113500  0.66180000  0.08151400  1
  F  F58  1  0.00774750  0.69323550  0.74744200  1
  F  F59  1  0.83695650  0.81557650  0.57903500  1
