# generated using pymatgen
data_Na2FeO3
_symmetry_space_group_name_H-M   'P 1'
_cell_length_a   6.29555142
_cell_length_b   9.97123842
_cell_length_c   6.31991736
_cell_angle_alpha   90.00000000
_cell_angle_beta   90.00000000
_cell_angle_gamma   90.00000000
_symmetry_Int_Tables_number   1
_chemical_formula_structural   Na2FeO3
_chemical_formula_sum   'Na8 Fe4 O12'
_cell_volume   396.72930007
_cell_formula_units_Z   4
loop_
 _symmetry_equiv_pos_site_id
 _symmetry_equiv_pos_as_xyz
  1  'x, y, z'
loop_
 _atom_site_type_symbol
 _atom_site_label
 _atom_site_symmetry_multiplicity
 _atom_site_fract_x
 _atom_site_fract_y
 _atom_site_fract_z
 _atom_site_occupancy
  Na  Na0  1  0.00000000  0.75093750  0.00000000  1
  Na  Na1  1  0.00000000  0.75093750  0.50000000  1
  Na  Na2  1  0.00000000  0.24906250  0.00000000  1
  Na  Na3  1  0.00000000  0.24906250  0.50000000  1
  Na  Na4  1  0.50000000  0.25093750  0.00000000  1
  Na  Na5  1  0.50000000  0.25093750  0.50000000  1
  Na  Na6  1  0.50000000  0.74906250  0.00000000  1
  Na  Na7  1  0.50000000  0.74906250  0.50000000  1
  Fe  Fe8  1  0.34358750  0.00000000  0.25000000  1
  Fe  Fe9  1  0.65641250  0.00000000  0.75000000  1
  Fe  Fe10  1  0.84358750  0.50000000  0.25000000  1
  Fe  Fe11  1  0.15641250  0.50000000  0.75000000  1
  O  O12  1  0.00000000  0.50000000  0.50000000  1
  O  O13  1  0.00000000  0.50000000  0.00000000  1
  O  O14  1  0.76353800  0.16578050  0.75000000  1
  O  O15  1  0.76353800  0.83421950  0.75000000  1
  O  O16  1  0.23646200  0.83421950  0.25000000  1
  O  O17  1  0.23646200  0.16578050  0.25000000  1
  O  O18  1  0.50000000  0.00000000  0.50000000  1
  O  O19  1  0.50000000  0.00000000  0.00000000  1
  O  O20  1  0.26353800  0.66578050  0.75000000  1
  O  O21  1  0.26353800  0.33421950  0.75000000  1
  O  O22  1  0.73646200  0.33421950  0.25000000  1
  O  O23  1  0.73646200  0.66578050  0.25000000  1
