# generated using pymatgen
data_V3Fe2Ni(PO4)6
_symmetry_space_group_name_H-M   'P 1'
_cell_length_a   8.63736268
_cell_length_b   8.63736268
_cell_length_c   20.60383183
_cell_angle_alpha   90.00000000
_cell_angle_beta   90.00000000
_cell_angle_gamma   120.00000000
_symmetry_Int_Tables_number   1
_chemical_formula_structural   V3Fe2Ni(PO4)6
_chemical_formula_sum   'V9 Fe6 Ni3 P18 O72'
_cell_volume   1331.19273845
_cell_formula_units_Z   3
loop_
 _symmetry_equiv_pos_site_id
 _symmetry_equiv_pos_as_xyz
  1  'x, y, z'
loop_
 _atom_site_type_symbol
 _atom_site_label
 _atom_site_symmetry_multiplicity
 _atom_site_fract_x
 _atom_site_fract_y
 _atom_site_fract_z
 _atom_site_occupancy
  V  V0  1  0.33333333  0.66666667  0.02338367  1
  V  V1  1  0.33333333  0.66666667  0.80813667  1
  V  V2  1  0.33333333  0.66666667  0.31039367  1
  V  V3  1  0.00000000  0.00000000  0.35671700  1
  V  V4  1  0.00000000  0.00000000  0.14147000  1
  V  V5  1  0.00000000  0.00000000  0.64372700  1
  V  V6  1  0.66666667  0.33333333  0.69005033  1
  V  V7  1  0.66666667  0.33333333  0.47480333  1
  V  V8  1  0.66666667  0.33333333  0.97706033  1
  Fe  Fe9  1  0.33333333  0.66666667  0.66346667  1
  Fe  Fe10  1  0.33333333  0.66666667  0.16563867  1
  Fe  Fe11  1  0.00000000  0.00000000  0.99680000  1
  Fe  Fe12  1  0.00000000  0.00000000  0.49897200  1
  Fe  Fe13  1  0.66666667  0.33333333  0.33013333  1
  Fe  Fe14  1  0.66666667  0.33333333  0.83230533  1
  Ni  Ni15  1  0.33333333  0.66666667  0.52483967  1
  Ni  Ni16  1  0.00000000  0.00000000  0.85817300  1
  Ni  Ni17  1  0.66666667  0.33333333  0.19150633  1
  P  P18  1  0.66744800  0.62614500  0.08471200  1
  P  P19  1  0.95869700  0.33255200  0.08471200  1
  P  P20  1  0.37385500  0.04130300  0.08471200  1
  P  P21  1  0.29158433  0.29245567  0.25029367  1
  P  P22  1  0.70754433  0.99912867  0.25029367  1
  P  P23  1  0.00087133  0.70841567  0.25029367  1
  P  P24  1  0.33411467  0.95947833  0.41804533  1
  P  P25  1  0.62536367  0.66588533  0.41804533  1
  P  P26  1  0.04052167  0.37463633  0.41804533  1
  P  P27  1  0.95825100  0.62578900  0.58362700  1
  P  P28  1  0.37421100  0.33246200  0.58362700  1
  P  P29  1  0.66753800  0.04174900  0.58362700  1
  P  P30  1  0.00078133  0.29281167  0.75137867  1
  P  P31  1  0.29203033  0.99921867  0.75137867  1
  P  P32  1  0.70718833  0.70796967  0.75137867  1
  P  P33  1  0.62491767  0.95912233  0.91696033  1
  P  P34  1  0.04087767  0.66579533  0.91696033  1
  P  P35  1  0.33420467  0.37508233  0.91696033  1
  O  O36  1  0.52493767  0.66583833  0.35484533  1
  O  O37  1  0.14090067  0.47506233  0.35484533  1
  O  O38  1  0.33416167  0.85909933  0.35484533  1
  O  O39  1  0.83561067  0.81825533  0.07602633  1
  O  O40  1  0.66440300  0.53403900  0.14612300  1
  O  O41  1  0.50066500  0.65441200  0.08694000  1
  O  O42  1  0.98264467  0.16438933  0.07602633  1
  O  O43  1  0.15374700  0.49933500  0.08694000  1
  O  O44  1  0.19144267  0.19051433  0.18807733  1
  O  O45  1  0.34558800  0.84625300  0.08694000  1
  O  O46  1  0.47567867  0.31142633  0.25985133  1
  O  O47  1  0.80948567  0.00092833  0.18807733  1
  O  O48  1  0.86963600  0.33559700  0.14612300  1
  O  O49  1  0.18174467  0.01735533  0.07602633  1
  O  O50  1  0.30875300  0.48150100  0.24339700  1
  O  O51  1  0.46596100  0.13036400  0.14612300  1
  O  O52  1  0.51849900  0.82725200  0.24339700  1
  O  O53  1  0.68857367  0.16425233  0.25985133  1
  O  O54  1  0.17274800  0.69124700  0.24339700  1
  O  O55  1  0.99907167  0.80855733  0.18807733  1
  O  O56  1  0.83574767  0.52432133  0.25985133  1
  O  O57  1  0.34809367  0.48565633  0.97777333  1
  O  O58  1  0.51434367  0.86243733  0.97777333  1
  O  O59  1  0.13756267  0.65190633  0.97777333  1
  O  O60  1  0.19160433  0.99917167  0.68817867  1
  O  O61  1  0.80756733  0.80839567  0.68817867  1
  O  O62  1  0.00082833  0.19243267  0.68817867  1
  O  O63  1  0.50227733  0.15158867  0.40935967  1
  O  O64  1  0.33106967  0.86737233  0.47945633  1
  O  O65  1  0.16733167  0.98774533  0.42027333  1
  O  O66  1  0.64931133  0.49772267  0.40935967  1
  O  O67  1  0.82041367  0.83266833  0.42027333  1
  O  O68  1  0.85810933  0.52384767  0.52141067  1
  O  O69  1  0.01225467  0.17958633  0.42027333  1
  O  O70  1  0.14234533  0.64475967  0.59318467  1
  O  O71  1  0.47615233  0.33426167  0.52141067  1
  O  O72  1  0.53630267  0.66893033  0.47945633  1
  O  O73  1  0.84841133  0.35068867  0.40935967  1
  O  O74  1  0.97541967  0.81483433  0.57673033  1
  O  O75  1  0.13262767  0.46369733  0.47945633  1
  O  O76  1  0.18516567  0.16058533  0.57673033  1
  O  O77  1  0.35524033  0.49758567  0.59318467  1
  O  O78  1  0.83941467  0.02458033  0.57673033  1
  O  O79  1  0.66573833  0.14189067  0.52141067  1
  O  O80  1  0.50241433  0.85765467  0.59318467  1
  O  O81  1  0.01476033  0.81898967  0.31110667  1
  O  O82  1  0.18101033  0.19577067  0.31110667  1
  O  O83  1  0.80422933  0.98523967  0.31110667  1
  O  O84  1  0.85827100  0.33250500  0.02151200  1
  O  O85  1  0.47423400  0.14172900  0.02151200  1
  O  O86  1  0.66749500  0.52576600  0.02151200  1
  O  O87  1  0.16894400  0.48492200  0.74269300  1
  O  O88  1  0.99773633  0.20070567  0.81278967  1
  O  O89  1  0.83399833  0.32107867  0.75360667  1
  O  O90  1  0.31597800  0.83105600  0.74269300  1
  O  O91  1  0.48708033  0.16600167  0.75360667  1
  O  O92  1  0.52477600  0.85718100  0.85474400  1
  O  O93  1  0.67892133  0.51291967  0.75360667  1
  O  O94  1  0.80901200  0.97809300  0.92651800  1
  O  O95  1  0.14281900  0.66759500  0.85474400  1
  O  O96  1  0.20296933  0.00226367  0.81278967  1
  O  O97  1  0.51507800  0.68402200  0.74269300  1
  O  O98  1  0.64208633  0.14816767  0.91006367  1
  O  O99  1  0.79929433  0.79703067  0.81278967  1
  O  O100  1  0.85183233  0.49391867  0.91006367  1
  O  O101  1  0.02190700  0.83091900  0.92651800  1
  O  O102  1  0.50608133  0.35791367  0.91006367  1
  O  O103  1  0.33240500  0.47522400  0.85474400  1
  O  O104  1  0.16908100  0.19098800  0.92651800  1
  O  O105  1  0.68142700  0.15232300  0.64444000  1
  O  O106  1  0.84767700  0.52910400  0.64444000  1
  O  O107  1  0.47089600  0.31857300  0.64444000  1
