# generated using pymatgen
data_Li2Co(SiO3)2
_symmetry_space_group_name_H-M   'P 1'
_cell_length_a   5.82895260
_cell_length_b   9.65431800
_cell_length_c   9.35449329
_cell_angle_alpha   90.00000000
_cell_angle_beta   90.45846530
_cell_angle_gamma   90.00000000
_symmetry_Int_Tables_number   1
_chemical_formula_structural   Li2Co(SiO3)2
_chemical_formula_sum   'Li8 Co4 Si8 O24'
_cell_volume   526.40315998
_cell_formula_units_Z   4
loop_
 _symmetry_equiv_pos_site_id
 _symmetry_equiv_pos_as_xyz
  1  'x, y, z'
loop_
 _atom_site_type_symbol
 _atom_site_label
 _atom_site_symmetry_multiplicity
 _atom_site_fract_x
 _atom_site_fract_y
 _atom_site_fract_z
 _atom_site_occupancy
  Li  Li0  1  0.43755650  0.16717950  0.61663900  1
  Li  Li1  1  0.43755650  0.83282050  0.11663900  1
  Li  Li2  1  0.56244350  0.16717950  0.88336100  1
  Li  Li3  1  0.56244350  0.83282050  0.38336100  1
  Li  Li4  1  0.93755650  0.66717950  0.61663900  1
  Li  Li5  1  0.93755650  0.33282050  0.11663900  1
  Li  Li6  1  0.06244350  0.66717950  0.88336100  1
  Li  Li7  1  0.06244350  0.33282050  0.38336100  1
  Co  Co8  1  0.50000000  0.24900600  0.25000000  1
  Co  Co9  1  0.50000000  0.75099400  0.75000000  1
  Co  Co10  1  0.00000000  0.74900600  0.25000000  1
  Co  Co11  1  0.00000000  0.25099400  0.75000000  1
  Si  Si12  1  0.16873900  0.96986800  0.86538500  1
  Si  Si13  1  0.16873900  0.03013200  0.36538500  1
  Si  Si14  1  0.83126100  0.96986800  0.63461500  1
  Si  Si15  1  0.83126100  0.03013200  0.13461500  1
  Si  Si16  1  0.66873900  0.46986800  0.86538500  1
  Si  Si17  1  0.66873900  0.53013200  0.36538500  1
  Si  Si18  1  0.33126100  0.46986800  0.63461500  1
  Si  Si19  1  0.33126100  0.53013200  0.13461500  1
  O  O20  1  0.50000000  0.38412350  0.75000000  1
  O  O21  1  0.50000000  0.61587650  0.25000000  1
  O  O22  1  0.00000000  0.00000000  0.00000000  1
  O  O23  1  0.50000000  0.50000000  0.50000000  1
  O  O24  1  0.25613300  0.11641800  0.79715100  1
  O  O25  1  0.25613300  0.88358200  0.29715100  1
  O  O26  1  0.74386700  0.11641800  0.70284900  1
  O  O27  1  0.74386700  0.88358200  0.20284900  1
  O  O28  1  0.37250450  0.86271750  0.90983600  1
  O  O29  1  0.37250450  0.13728250  0.40983600  1
  O  O30  1  0.62749550  0.86271750  0.59016400  1
  O  O31  1  0.62749550  0.13728250  0.09016400  1
  O  O32  1  0.00000000  0.88412350  0.75000000  1
  O  O33  1  0.00000000  0.11587650  0.25000000  1
  O  O34  1  0.50000000  0.50000000  0.00000000  1
  O  O35  1  0.00000000  0.00000000  0.50000000  1
  O  O36  1  0.75613300  0.61641800  0.79715100  1
  O  O37  1  0.75613300  0.38358200  0.29715100  1
  O  O38  1  0.24386700  0.61641800  0.70284900  1
  O  O39  1  0.24386700  0.38358200  0.20284900  1
  O  O40  1  0.87250450  0.36271750  0.90983600  1
  O  O41  1  0.87250450  0.63728250  0.40983600  1
  O  O42  1  0.12749550  0.36271750  0.59016400  1
  O  O43  1  0.12749550  0.63728250  0.09016400  1
