# generated using pymatgen
data_Li3FeAsCO7
_symmetry_space_group_name_H-M   'P 1'
_cell_length_a   5.12530099
_cell_length_b   6.60924398
_cell_length_c   8.67424525
_cell_angle_alpha   90.00000000
_cell_angle_beta   95.90581721
_cell_angle_gamma   90.00000000
_symmetry_Int_Tables_number   1
_chemical_formula_structural   Li3FeAsCO7
_chemical_formula_sum   'Li6 Fe2 As2 C2 O14'
_cell_volume   292.27498389
_cell_formula_units_Z   2
loop_
 _symmetry_equiv_pos_site_id
 _symmetry_equiv_pos_as_xyz
  1  'x, y, z'
loop_
 _atom_site_type_symbol
 _atom_site_label
 _atom_site_symmetry_multiplicity
 _atom_site_fract_x
 _atom_site_fract_y
 _atom_site_fract_z
 _atom_site_occupancy
  Li  Li0  1  0.28783150  0.75000000  0.40323900  1
  Li  Li1  1  0.71216850  0.25000000  0.59676100  1
  Li  Li2  1  0.75636150  0.98210450  0.23263000  1
  Li  Li3  1  0.75636150  0.51789550  0.23263000  1
  Li  Li4  1  0.24363850  0.48210450  0.76737000  1
  Li  Li5  1  0.24363850  0.01789550  0.76737000  1
  Fe  Fe6  1  0.28725650  0.25000000  0.18087600  1
  Fe  Fe7  1  0.71274350  0.75000000  0.81912400  1
  As  As8  1  0.22204700  0.75000000  0.08542300  1
  As  As9  1  0.77795300  0.25000000  0.91457700  1
  C  C10  1  0.17392800  0.25000000  0.47203400  1
  C  C11  1  0.82607200  0.75000000  0.52796600  1
  O  O12  1  0.88806000  0.75000000  0.38604300  1
  O  O13  1  0.11194000  0.25000000  0.61395700  1
  O  O14  1  0.41600500  0.25000000  0.44174150  1
  O  O15  1  0.58399500  0.75000000  0.55825850  1
  O  O16  1  0.98999300  0.25000000  0.35601850  1
  O  O17  1  0.01000700  0.75000000  0.64398150  1
  O  O18  1  0.88264350  0.75000000  0.06215900  1
  O  O19  1  0.11735650  0.25000000  0.93784100  1
  O  O20  1  0.67292250  0.25000000  0.09480750  1
  O  O21  1  0.32707750  0.75000000  0.90519250  1
  O  O22  1  0.34069100  0.94588400  0.20572100  1
  O  O23  1  0.34069100  0.55411600  0.20572100  1
  O  O24  1  0.65930900  0.44588400  0.79427900  1
  O  O25  1  0.65930900  0.05411600  0.79427900  1
