# generated using pymatgen
data_Ca5Mn4O9
_symmetry_space_group_name_H-M   'P 1'
_cell_length_a   17.12321800
_cell_length_b   3.32966800
_cell_length_c   9.90283086
_cell_angle_alpha   90.00000000
_cell_angle_beta   124.82515142
_cell_angle_gamma   90.00000000
_symmetry_Int_Tables_number   1
_chemical_formula_structural   Ca5Mn4O9
_chemical_formula_sum   'Ca10 Mn8 O18'
_cell_volume   463.48447887
_cell_formula_units_Z   2
loop_
 _symmetry_equiv_pos_site_id
 _symmetry_equiv_pos_as_xyz
  1  'x, y, z'
loop_
 _atom_site_type_symbol
 _atom_site_label
 _atom_site_symmetry_multiplicity
 _atom_site_fract_x
 _atom_site_fract_y
 _atom_site_fract_z
 _atom_site_occupancy
  Ca  Ca0  1  0.17043400  0.50000000  0.66896200  1
  Ca  Ca1  1  0.99874100  0.00000000  0.32538300  1
  Ca  Ca2  1  0.99618600  0.00000000  0.66901400  1
  Ca  Ca3  1  0.82933600  0.50000000  0.33466200  1
  Ca  Ca4  1  0.66320600  0.00000000  0.00260800  1
  Ca  Ca5  1  0.67043400  0.00000000  0.66896200  1
  Ca  Ca6  1  0.49874100  0.50000000  0.32538300  1
  Ca  Ca7  1  0.49618600  0.50000000  0.66901400  1
  Ca  Ca8  1  0.32933600  0.00000000  0.33466200  1
  Ca  Ca9  1  0.16320600  0.50000000  0.00260800  1
  Mn  Mn10  1  0.33201400  0.00000000  0.99930900  1
  Mn  Mn11  1  0.33263300  0.00000000  0.66969200  1
  Mn  Mn12  1  0.16546000  0.50000000  0.33410000  1
  Mn  Mn13  1  0.49506500  0.50000000  0.99908900  1
  Mn  Mn14  1  0.83201400  0.50000000  0.99930900  1
  Mn  Mn15  1  0.83263300  0.50000000  0.66969200  1
  Mn  Mn16  1  0.66546000  0.00000000  0.33410000  1
  Mn  Mn17  1  0.99506500  0.00000000  0.99908900  1
  O  O18  1  0.33625000  0.50000000  0.83921600  1
  O  O19  1  0.16991800  0.00000000  0.49620900  1
  O  O20  1  0.16860200  0.00000000  0.83782000  1
  O  O21  1  0.99666400  0.50000000  0.15584000  1
  O  O22  1  0.99793800  0.50000000  0.49958000  1
  O  O23  1  0.99325200  0.50000000  0.83519200  1
  O  O24  1  0.83102500  0.00000000  0.16071300  1
  O  O25  1  0.82800700  0.00000000  0.50479700  1
  O  O26  1  0.66116300  0.50000000  0.17208400  1
  O  O27  1  0.83625000  0.00000000  0.83921600  1
  O  O28  1  0.66991800  0.50000000  0.49620900  1
  O  O29  1  0.66860200  0.50000000  0.83782000  1
  O  O30  1  0.49666400  0.00000000  0.15584000  1
  O  O31  1  0.49793800  0.00000000  0.49958000  1
  O  O32  1  0.49325200  0.00000000  0.83519200  1
  O  O33  1  0.33102500  0.50000000  0.16071300  1
  O  O34  1  0.32800700  0.50000000  0.50479700  1
  O  O35  1  0.16116300  0.00000000  0.17208400  1
