# generated using pymatgen
data_Li3SiNiO5
_symmetry_space_group_name_H-M   'P 1'
_cell_length_a   5.00895991
_cell_length_b   5.51803763
_cell_length_c   6.51634555
_cell_angle_alpha   77.39444354
_cell_angle_beta   74.31964971
_cell_angle_gamma   73.84143323
_symmetry_Int_Tables_number   1
_chemical_formula_structural   Li3SiNiO5
_chemical_formula_sum   'Li6 Si2 Ni2 O10'
_cell_volume   164.55205528
_cell_formula_units_Z   2
loop_
 _symmetry_equiv_pos_site_id
 _symmetry_equiv_pos_as_xyz
  1  'x, y, z'
loop_
 _atom_site_type_symbol
 _atom_site_label
 _atom_site_symmetry_multiplicity
 _atom_site_fract_x
 _atom_site_fract_y
 _atom_site_fract_z
 _atom_site_occupancy
  Li  Li0  1  0.48958750  0.24851150  0.00414400  1
  Li  Li1  1  0.51041250  0.75148850  0.99585600  1
  Li  Li2  1  0.30176300  0.44889900  0.40187950  1
  Li  Li3  1  0.69823700  0.55110100  0.59812050  1
  Li  Li4  1  0.29856550  0.95036250  0.40320850  1
  Li  Li5  1  0.70143450  0.04963750  0.59679150  1
  Si  Si6  1  0.90927600  0.84150700  0.22759600  1
  Si  Si7  1  0.09072400  0.15849300  0.77240400  1
  Ni  Ni8  1  0.90320600  0.34716300  0.20628550  1
  Ni  Ni9  1  0.09679400  0.65283700  0.79371450  1
  O  O10  1  0.64529550  0.12609650  0.28023200  1
  O  O11  1  0.35470450  0.87390350  0.71976800  1
  O  O12  1  0.64830350  0.65999850  0.27938750  1
  O  O13  1  0.35169650  0.34000150  0.72061250  1
  O  O14  1  0.15651050  0.04760750  0.10200100  1
  O  O15  1  0.84348950  0.95239250  0.89799900  1
  O  O16  1  0.99556100  0.75952800  0.47223750  1
  O  O17  1  0.00443900  0.24047200  0.52776250  1
  O  O18  1  0.16103200  0.57108900  0.11375850  1
  O  O19  1  0.83896800  0.42891100  0.88624150  1
