# generated using pymatgen
data_Fe6O5F7
_symmetry_space_group_name_H-M   'P 1'
_cell_length_a   4.77745900
_cell_length_b   9.25522000
_cell_length_c   4.78726818
_cell_angle_alpha   90.00000000
_cell_angle_beta   93.16912762
_cell_angle_gamma   90.00000000
_symmetry_Int_Tables_number   1
_chemical_formula_structural   Fe6O5F7
_chemical_formula_sum   'Fe6 O5 F7'
_cell_volume   211.35221146
_cell_formula_units_Z   1
loop_
 _symmetry_equiv_pos_site_id
 _symmetry_equiv_pos_as_xyz
  1  'x, y, z'
loop_
 _atom_site_type_symbol
 _atom_site_label
 _atom_site_symmetry_multiplicity
 _atom_site_fract_x
 _atom_site_fract_y
 _atom_site_fract_z
 _atom_site_occupancy
  Fe  Fe0  1  0.99168800  0.00000000  0.99114100  1
  Fe  Fe1  1  0.02828000  0.65089100  0.00988000  1
  Fe  Fe2  1  0.02828000  0.34910900  0.00988000  1
  Fe  Fe3  1  0.49161200  0.84170300  0.48576800  1
  Fe  Fe4  1  0.49161200  0.15829700  0.48576800  1
  Fe  Fe5  1  0.45450100  0.50000000  0.50117900  1
  O  O6  1  0.20289000  0.50000000  0.79811600  1
  O  O7  1  0.29508400  0.00000000  0.29030900  1
  O  O8  1  0.31221200  0.67288300  0.31536700  1
  O  O9  1  0.31221200  0.32711700  0.31536700  1
  O  O10  1  0.69714100  0.00000000  0.69169400  1
  F  F11  1  0.19505600  0.83603500  0.80122600  1
  F  F12  1  0.19505600  0.16396500  0.80122600  1
  F  F13  1  0.70303300  0.66998600  0.70570900  1
  F  F14  1  0.70303300  0.33001400  0.70570900  1
  F  F15  1  0.80625100  0.83361600  0.18814900  1
  F  F16  1  0.80625100  0.16638400  0.18814900  1
  F  F17  1  0.78580600  0.50000000  0.21536300  1
