# generated using pymatgen
data_Na2Li4Mn2C4SO16
_symmetry_space_group_name_H-M   'P 1'
_cell_length_a   13.49438400
_cell_length_b   14.00310400
_cell_length_c   14.01171000
_cell_angle_alpha   90.00000000
_cell_angle_beta   90.00000000
_cell_angle_gamma   90.00000000
_symmetry_Int_Tables_number   1
_chemical_formula_structural   Na2Li4Mn2C4SO16
_chemical_formula_sum   'Na16 Li32 Mn16 C32 S8 O128'
_cell_volume   2647.69843576
_cell_formula_units_Z   8
loop_
 _symmetry_equiv_pos_site_id
 _symmetry_equiv_pos_as_xyz
  1  'x, y, z'
loop_
 _atom_site_type_symbol
 _atom_site_label
 _atom_site_symmetry_multiplicity
 _atom_site_fract_x
 _atom_site_fract_y
 _atom_site_fract_z
 _atom_site_occupancy
  Na  Na0  1  0.50000000  0.27989100  0.00000000  1
  Na  Na1  1  0.75000000  0.52989100  0.25000000  1
  Na  Na2  1  0.50000000  0.72010900  0.00000000  1
  Na  Na3  1  0.75000000  0.97010900  0.25000000  1
  Na  Na4  1  0.50000000  0.77989100  0.50000000  1
  Na  Na5  1  0.75000000  0.02989100  0.75000000  1
  Na  Na6  1  0.50000000  0.22010900  0.50000000  1
  Na  Na7  1  0.75000000  0.47010900  0.75000000  1
  Na  Na8  1  0.00000000  0.27989100  0.50000000  1
  Na  Na9  1  0.25000000  0.52989100  0.75000000  1
  Na  Na10  1  0.00000000  0.72010900  0.50000000  1
  Na  Na11  1  0.25000000  0.97010900  0.75000000  1
  Na  Na12  1  0.00000000  0.77989100  0.00000000  1
  Na  Na13  1  0.25000000  0.02989100  0.25000000  1
  Na  Na14  1  0.00000000  0.22010900  0.00000000  1
  Na  Na15  1  0.25000000  0.47010900  0.25000000  1
  Li  Li16  1  0.78156850  0.88234250  0.04871100  1
  Li  Li17  1  0.71843150  0.88234250  0.45128900  1
  Li  Li18  1  0.03156850  0.13234250  0.20128900  1
  Li  Li19  1  0.28156850  0.11765750  0.45128900  1
  Li  Li20  1  0.46843150  0.13234250  0.29871100  1
  Li  Li21  1  0.21843150  0.11765750  0.04871100  1
  Li  Li22  1  0.53156850  0.86765750  0.29871100  1
  Li  Li23  1  0.96843150  0.86765750  0.20128900  1
  Li  Li24  1  0.78156850  0.38234250  0.54871100  1
  Li  Li25  1  0.71843150  0.38234250  0.95128900  1
  Li  Li26  1  0.03156850  0.63234250  0.70128900  1
  Li  Li27  1  0.28156850  0.61765750  0.95128900  1
  Li  Li28  1  0.46843150  0.63234250  0.79871100  1
  Li  Li29  1  0.21843150  0.61765750  0.54871100  1
  Li  Li30  1  0.53156850  0.36765750  0.79871100  1
  Li  Li31  1  0.96843150  0.36765750  0.70128900  1
  Li  Li32  1  0.28156850  0.88234250  0.54871100  1
  Li  Li33  1  0.21843150  0.88234250  0.95128900  1
  Li  Li34  1  0.53156850  0.13234250  0.70128900  1
  Li  Li35  1  0.78156850  0.11765750  0.95128900  1
  Li  Li36  1  0.96843150  0.13234250  0.79871100  1
  Li  Li37  1  0.71843150  0.11765750  0.54871100  1
  Li  Li38  1  0.03156850  0.86765750  0.79871100  1
  Li  Li39  1  0.46843150  0.86765750  0.70128900  1
  Li  Li40  1  0.28156850  0.38234250  0.04871100  1
  Li  Li41  1  0.21843150  0.38234250  0.45128900  1
  Li  Li42  1  0.53156850  0.63234250  0.20128900  1
  Li  Li43  1  0.78156850  0.61765750  0.45128900  1
  Li  Li44  1  0.96843150  0.63234250  0.29871100  1
  Li  Li45  1  0.71843150  0.61765750  0.04871100  1
  Li  Li46  1  0.03156850  0.36765750  0.29871100  1
  Li  Li47  1  0.46843150  0.36765750  0.20128900  1
  Mn  Mn48  1  0.37500000  0.87500000  0.12500000  1
  Mn  Mn49  1  0.87500000  0.12500000  0.37500000  1
  Mn  Mn50  1  0.62500000  0.12500000  0.12500000  1
  Mn  Mn51  1  0.12500000  0.87500000  0.37500000  1
  Mn  Mn52  1  0.37500000  0.37500000  0.62500000  1
  Mn  Mn53  1  0.87500000  0.62500000  0.87500000  1
  Mn  Mn54  1  0.62500000  0.62500000  0.62500000  1
  Mn  Mn55  1  0.12500000  0.37500000  0.87500000  1
  Mn  Mn56  1  0.87500000  0.87500000  0.62500000  1
  Mn  Mn57  1  0.37500000  0.12500000  0.87500000  1
  Mn  Mn58  1  0.12500000  0.12500000  0.62500000  1
  Mn  Mn59  1  0.62500000  0.87500000  0.87500000  1
  Mn  Mn60  1  0.87500000  0.37500000  0.12500000  1
  Mn  Mn61  1  0.37500000  0.62500000  0.37500000  1
  Mn  Mn62  1  0.12500000  0.62500000  0.12500000  1
  Mn  Mn63  1  0.62500000  0.37500000  0.37500000  1
  C  C64  1  0.64860900  0.34770000  0.15168600  1
  C  C65  1  0.85139100  0.34770000  0.34831400  1
  C  C66  1  0.10139100  0.09770000  0.40168600  1
  C  C67  1  0.85139100  0.15230000  0.15168600  1
  C  C68  1  0.39860900  0.09770000  0.09831400  1
  C  C69  1  0.64860900  0.15230000  0.34831400  1
  C  C70  1  0.89860900  0.90230000  0.40168600  1
  C  C71  1  0.60139100  0.90230000  0.09831400  1
  C  C72  1  0.64860900  0.84770000  0.65168600  1
  C  C73  1  0.85139100  0.84770000  0.84831400  1
  C  C74  1  0.10139100  0.59770000  0.90168600  1
  C  C75  1  0.85139100  0.65230000  0.65168600  1
  C  C76  1  0.39860900  0.59770000  0.59831400  1
  C  C77  1  0.64860900  0.65230000  0.84831400  1
  C  C78  1  0.89860900  0.40230000  0.90168600  1
  C  C79  1  0.60139100  0.40230000  0.59831400  1
  C  C80  1  0.14860900  0.34770000  0.65168600  1
  C  C81  1  0.35139100  0.34770000  0.84831400  1
  C  C82  1  0.60139100  0.09770000  0.90168600  1
  C  C83  1  0.35139100  0.15230000  0.65168600  1
  C  C84  1  0.89860900  0.09770000  0.59831400  1
  C  C85  1  0.14860900  0.15230000  0.84831400  1
  C  C86  1  0.39860900  0.90230000  0.90168600  1
  C  C87  1  0.10139100  0.90230000  0.59831400  1
  C  C88  1  0.14860900  0.84770000  0.15168600  1
  C  C89  1  0.35139100  0.84770000  0.34831400  1
  C  C90  1  0.60139100  0.59770000  0.40168600  1
  C  C91  1  0.35139100  0.65230000  0.15168600  1
  C  C92  1  0.89860900  0.59770000  0.09831400  1
  C  C93  1  0.14860900  0.65230000  0.34831400  1
  C  C94  1  0.39860900  0.40230000  0.40168600  1
  C  C95  1  0.10139100  0.40230000  0.09831400  1
  S  S96  1  0.75000000  0.75000000  0.25000000  1
  S  S97  1  0.00000000  0.00000000  0.00000000  1
  S  S98  1  0.75000000  0.25000000  0.75000000  1
  S  S99  1  0.00000000  0.50000000  0.50000000  1
  S  S100  1  0.25000000  0.75000000  0.75000000  1
  S  S101  1  0.50000000  0.00000000  0.50000000  1
  S  S102  1  0.25000000  0.25000000  0.25000000  1
  S  S103  1  0.50000000  0.50000000  0.00000000  1
  O  O104  1  0.78071950  0.35477050  0.41037400  1
  O  O105  1  0.57979250  0.28299050  0.14207400  1
  O  O106  1  0.92020750  0.28299050  0.35792600  1
  O  O107  1  0.10716100  0.15563400  0.47359900  1
  O  O108  1  0.85716100  0.09436600  0.22359900  1
  O  O109  1  0.71928050  0.35477050  0.08962600  1
  O  O110  1  0.03071950  0.10477050  0.33962600  1
  O  O111  1  0.78071950  0.14522950  0.08962600  1
  O  O112  1  0.17020750  0.03299050  0.39207400  1
  O  O113  1  0.92020750  0.21700950  0.14207400  1
  O  O114  1  0.68622000  0.81249800  0.31179100  1
  O  O115  1  0.93622000  0.93750200  0.06179100  1
  O  O116  1  0.64283900  0.40563400  0.22359900  1
  O  O117  1  0.89283900  0.84436600  0.47359900  1
  O  O118  1  0.68622000  0.68750200  0.18820900  1
  O  O119  1  0.81378000  0.68750200  0.31179100  1
  O  O120  1  0.93622000  0.56249800  0.43820900  1
  O  O121  1  0.56378000  0.56249800  0.06179100  1
  O  O122  1  0.85716100  0.40563400  0.27640100  1
  O  O123  1  0.60716100  0.84436600  0.02640100  1
  O  O124  1  0.81378000  0.81249800  0.18820900  1
  O  O125  1  0.56378000  0.93750200  0.43820900  1
  O  O126  1  0.32979250  0.03299050  0.10792600  1
  O  O127  1  0.57979250  0.21700950  0.35792600  1
  O  O128  1  0.46928050  0.10477050  0.16037400  1
  O  O129  1  0.71928050  0.14522950  0.41037400  1
  O  O130  1  0.53071950  0.89522950  0.16037400  1
  O  O131  1  0.39283900  0.15563400  0.02640100  1
  O  O132  1  0.64283900  0.09436600  0.27640100  1
  O  O133  1  0.82979250  0.96700950  0.39207400  1
  O  O134  1  0.67020750  0.96700950  0.10792600  1
  O  O135  1  0.96928050  0.89522950  0.33962600  1
  O  O136  1  0.78071950  0.85477050  0.91037400  1
  O  O137  1  0.57979250  0.78299050  0.64207400  1
  O  O138  1  0.92020750  0.78299050  0.85792600  1
  O  O139  1  0.10716100  0.65563400  0.97359900  1
  O  O140  1  0.85716100  0.59436600  0.72359900  1
  O  O141  1  0.71928050  0.85477050  0.58962600  1
  O  O142  1  0.03071950  0.60477050  0.83962600  1
  O  O143  1  0.78071950  0.64522950  0.58962600  1
  O  O144  1  0.17020750  0.53299050  0.89207400  1
  O  O145  1  0.92020750  0.71700950  0.64207400  1
  O  O146  1  0.68622000  0.31249800  0.81179100  1
  O  O147  1  0.93622000  0.43750200  0.56179100  1
  O  O148  1  0.64283900  0.90563400  0.72359900  1
  O  O149  1  0.89283900  0.34436600  0.97359900  1
  O  O150  1  0.68622000  0.18750200  0.68820900  1
  O  O151  1  0.81378000  0.18750200  0.81179100  1
  O  O152  1  0.93622000  0.06249800  0.93820900  1
  O  O153  1  0.56378000  0.06249800  0.56179100  1
  O  O154  1  0.85716100  0.90563400  0.77640100  1
  O  O155  1  0.60716100  0.34436600  0.52640100  1
  O  O156  1  0.81378000  0.31249800  0.68820900  1
  O  O157  1  0.56378000  0.43750200  0.93820900  1
  O  O158  1  0.32979250  0.53299050  0.60792600  1
  O  O159  1  0.57979250  0.71700950  0.85792600  1
  O  O160  1  0.46928050  0.60477050  0.66037400  1
  O  O161  1  0.71928050  0.64522950  0.91037400  1
  O  O162  1  0.53071950  0.39522950  0.66037400  1
  O  O163  1  0.39283900  0.65563400  0.52640100  1
  O  O164  1  0.64283900  0.59436600  0.77640100  1
  O  O165  1  0.82979250  0.46700950  0.89207400  1
  O  O166  1  0.67020750  0.46700950  0.60792600  1
  O  O167  1  0.96928050  0.39522950  0.83962600  1
  O  O168  1  0.28071950  0.35477050  0.91037400  1
  O  O169  1  0.07979250  0.28299050  0.64207400  1
  O  O170  1  0.42020750  0.28299050  0.85792600  1
  O  O171  1  0.60716100  0.15563400  0.97359900  1
  O  O172  1  0.35716100  0.09436600  0.72359900  1
  O  O173  1  0.21928050  0.35477050  0.58962600  1
  O  O174  1  0.53071950  0.10477050  0.83962600  1
  O  O175  1  0.28071950  0.14522950  0.58962600  1
  O  O176  1  0.67020750  0.03299050  0.89207400  1
  O  O177  1  0.42020750  0.21700950  0.64207400  1
  O  O178  1  0.18622000  0.81249800  0.81179100  1
  O  O179  1  0.43622000  0.93750200  0.56179100  1
  O  O180  1  0.14283900  0.40563400  0.72359900  1
  O  O181  1  0.39283900  0.84436600  0.97359900  1
  O  O182  1  0.18622000  0.68750200  0.68820900  1
  O  O183  1  0.31378000  0.68750200  0.81179100  1
  O  O184  1  0.43622000  0.56249800  0.93820900  1
  O  O185  1  0.06378000  0.56249800  0.56179100  1
  O  O186  1  0.35716100  0.40563400  0.77640100  1
  O  O187  1  0.10716100  0.84436600  0.52640100  1
  O  O188  1  0.31378000  0.81249800  0.68820900  1
  O  O189  1  0.06378000  0.93750200  0.93820900  1
  O  O190  1  0.82979250  0.03299050  0.60792600  1
  O  O191  1  0.07979250  0.21700950  0.85792600  1
  O  O192  1  0.96928050  0.10477050  0.66037400  1
  O  O193  1  0.21928050  0.14522950  0.91037400  1
  O  O194  1  0.03071950  0.89522950  0.66037400  1
  O  O195  1  0.89283900  0.15563400  0.52640100  1
  O  O196  1  0.14283900  0.09436600  0.77640100  1
  O  O197  1  0.32979250  0.96700950  0.89207400  1
  O  O198  1  0.17020750  0.96700950  0.60792600  1
  O  O199  1  0.46928050  0.89522950  0.83962600  1
  O  O200  1  0.28071950  0.85477050  0.41037400  1
  O  O201  1  0.07979250  0.78299050  0.14207400  1
  O  O202  1  0.42020750  0.78299050  0.35792600  1
  O  O203  1  0.60716100  0.65563400  0.47359900  1
  O  O204  1  0.35716100  0.59436600  0.22359900  1
  O  O205  1  0.21928050  0.85477050  0.08962600  1
  O  O206  1  0.53071950  0.60477050  0.33962600  1
  O  O207  1  0.28071950  0.64522950  0.08962600  1
  O  O208  1  0.67020750  0.53299050  0.39207400  1
  O  O209  1  0.42020750  0.71700950  0.14207400  1
  O  O210  1  0.18622000  0.31249800  0.31179100  1
  O  O211  1  0.43622000  0.43750200  0.06179100  1
  O  O212  1  0.14283900  0.90563400  0.22359900  1
  O  O213  1  0.39283900  0.34436600  0.47359900  1
  O  O214  1  0.18622000  0.18750200  0.18820900  1
  O  O215  1  0.31378000  0.18750200  0.31179100  1
  O  O216  1  0.43622000  0.06249800  0.43820900  1
  O  O217  1  0.06378000  0.06249800  0.06179100  1
  O  O218  1  0.35716100  0.90563400  0.27640100  1
  O  O219  1  0.10716100  0.34436600  0.02640100  1
  O  O220  1  0.31378000  0.31249800  0.18820900  1
  O  O221  1  0.06378000  0.43750200  0.43820900  1
  O  O222  1  0.82979250  0.53299050  0.10792600  1
  O  O223  1  0.07979250  0.71700950  0.35792600  1
  O  O224  1  0.96928050  0.60477050  0.16037400  1
  O  O225  1  0.21928050  0.64522950  0.41037400  1
  O  O226  1  0.03071950  0.39522950  0.16037400  1
  O  O227  1  0.89283900  0.65563400  0.02640100  1
  O  O228  1  0.14283900  0.59436600  0.27640100  1
  O  O229  1  0.32979250  0.46700950  0.39207400  1
  O  O230  1  0.17020750  0.46700950  0.10792600  1
  O  O231  1  0.46928050  0.39522950  0.33962600  1
