# generated using pymatgen
data_Li2TiCr3O8
_symmetry_space_group_name_H-M   'P 1'
_cell_length_a   5.91753874
_cell_length_b   5.92026834
_cell_length_c   6.00546405
_cell_angle_alpha   90.06861546
_cell_angle_beta   119.39094294
_cell_angle_gamma   119.85116242
_symmetry_Int_Tables_number   1
_chemical_formula_structural   Li2TiCr3O8
_chemical_formula_sum   'Li2 Ti1 Cr3 O8'
_cell_volume   150.36893563
_cell_formula_units_Z   1
loop_
 _symmetry_equiv_pos_site_id
 _symmetry_equiv_pos_as_xyz
  1  'x, y, z'
loop_
 _atom_site_type_symbol
 _atom_site_label
 _atom_site_symmetry_multiplicity
 _atom_site_fract_x
 _atom_site_fract_y
 _atom_site_fract_z
 _atom_site_occupancy
  Li  Li0  1  0.50000000  0.50000000  0.50000000  1
  Li  Li1  1  0.00000000  0.50000000  0.50000000  1
  Ti  Ti2  1  0.00000000  0.00000000  0.00000000  1
  Cr  Cr3  1  0.50000000  0.00000000  0.00000000  1
  Cr  Cr4  1  0.00000000  0.50000000  0.00000000  1
  Cr  Cr5  1  0.50000000  0.50000000  0.00000000  1
  O  O6  1  0.52825850  0.27690550  0.80076200  1
  O  O7  1  0.47174150  0.72309450  0.19923800  1
  O  O8  1  0.98055350  0.23860950  0.21257700  1
  O  O9  1  0.01944650  0.76139050  0.78742300  1
  O  O10  1  0.47475050  0.24398650  0.21610200  1
  O  O11  1  0.52524950  0.75601350  0.78389800  1
  O  O12  1  0.96115350  0.73299000  0.20623300  1
  O  O13  1  0.03884650  0.26701000  0.79376700  1
