# generated using pymatgen
data_Li3NbV2O6
_symmetry_space_group_name_H-M   'P 1'
_cell_length_a   13.29555116
_cell_length_b   2.94809323
_cell_length_c   6.19020213
_cell_angle_alpha   90.00000000
_cell_angle_beta   104.67635394
_cell_angle_gamma   90.00000000
_symmetry_Int_Tables_number   1
_chemical_formula_structural   Li3NbV2O6
_chemical_formula_sum   'Li6 Nb2 V4 O12'
_cell_volume   234.71782986
_cell_formula_units_Z   2
loop_
 _symmetry_equiv_pos_site_id
 _symmetry_equiv_pos_as_xyz
  1  'x, y, z'
loop_
 _atom_site_type_symbol
 _atom_site_label
 _atom_site_symmetry_multiplicity
 _atom_site_fract_x
 _atom_site_fract_y
 _atom_site_fract_z
 _atom_site_occupancy
  Li  Li0  1  0.00000000  0.50000000  0.50000000  1
  Li  Li1  1  0.67028150  0.50000000  0.81518400  1
  Li  Li2  1  0.82971850  0.00000000  0.18481600  1
  Li  Li3  1  0.50000000  0.00000000  0.50000000  1
  Li  Li4  1  0.17028150  0.00000000  0.81518400  1
  Li  Li5  1  0.32971850  0.50000000  0.18481600  1
  Nb  Nb6  1  0.00000000  0.50000000  0.00000000  1
  Nb  Nb7  1  0.50000000  0.00000000  0.00000000  1
  V  V8  1  0.66721900  0.50000000  0.34172900  1
  V  V9  1  0.83278100  0.00000000  0.65827100  1
  V  V10  1  0.16721900  0.00000000  0.34172900  1
  V  V11  1  0.33278100  0.50000000  0.65827100  1
  O  O12  1  0.15842375  0.50000000  0.08581550  1
  O  O13  1  0.84157625  0.50000000  0.91418450  1
  O  O14  1  0.83042350  0.50000000  0.42196300  1
  O  O15  1  0.66957650  0.00000000  0.57803700  1
  O  O16  1  0.00056150  0.00000000  0.75087000  1
  O  O17  1  0.99943850  0.00000000  0.24913000  1
  O  O18  1  0.65842375  0.00000000  0.08581550  1
  O  O19  1  0.34157625  0.00000000  0.91418450  1
  O  O20  1  0.33042350  0.00000000  0.42196300  1
  O  O21  1  0.16957650  0.50000000  0.57803700  1
  O  O22  1  0.50056150  0.50000000  0.75087000  1
  O  O23  1  0.49943850  0.50000000  0.24913000  1
