# generated using pymatgen
data_Na2Li(NiO2)3
_symmetry_space_group_name_H-M   'P 1'
_cell_length_a   13.09445797
_cell_length_b   3.02119764
_cell_length_c   6.21154224
_cell_angle_alpha   90.00000000
_cell_angle_beta   107.51002828
_cell_angle_gamma   90.00000000
_symmetry_Int_Tables_number   1
_chemical_formula_structural   Na2Li(NiO2)3
_chemical_formula_sum   'Na4 Li2 Ni6 O12'
_cell_volume   234.34820602
_cell_formula_units_Z   2
loop_
 _symmetry_equiv_pos_site_id
 _symmetry_equiv_pos_as_xyz
  1  'x, y, z'
loop_
 _atom_site_type_symbol
 _atom_site_label
 _atom_site_symmetry_multiplicity
 _atom_site_fract_x
 _atom_site_fract_y
 _atom_site_fract_z
 _atom_site_occupancy
  Na  Na0  1  0.16486500  0.00000000  0.33170300  1
  Na  Na1  1  0.83513500  0.00000000  0.66829700  1
  Na  Na2  1  0.66486500  0.50000000  0.33170300  1
  Na  Na3  1  0.33513500  0.50000000  0.66829700  1
  Li  Li4  1  0.00000000  0.50000000  0.00000000  1
  Li  Li5  1  0.50000000  0.00000000  0.00000000  1
  Ni  Ni6  1  0.00000000  0.50000000  0.50000000  1
  Ni  Ni7  1  0.16659200  0.00000000  0.83706600  1
  Ni  Ni8  1  0.83340800  0.00000000  0.16293400  1
  Ni  Ni9  1  0.50000000  0.00000000  0.50000000  1
  Ni  Ni10  1  0.66659200  0.50000000  0.83706600  1
  Ni  Ni11  1  0.33340800  0.50000000  0.16293400  1
  O  O12  1  0.67959650  0.00000000  0.06292600  1
  O  O13  1  0.82040350  0.50000000  0.93707400  1
  O  O14  1  0.84767275  0.50000000  0.39161350  1
  O  O15  1  0.15232725  0.50000000  0.60838650  1
  O  O16  1  0.98471125  0.00000000  0.25550350  1
  O  O17  1  0.01528875  0.00000000  0.74449650  1
  O  O18  1  0.17959650  0.50000000  0.06292600  1
  O  O19  1  0.32040350  0.00000000  0.93707400  1
  O  O20  1  0.34767275  0.00000000  0.39161350  1
  O  O21  1  0.65232725  0.00000000  0.60838650  1
  O  O22  1  0.48471125  0.50000000  0.25550350  1
  O  O23  1  0.51528875  0.50000000  0.74449650  1
