# generated using pymatgen
data_Mg2Mn3O8
_symmetry_space_group_name_H-M   'P 1'
_cell_length_a   10.08369409
_cell_length_b   5.78500601
_cell_length_c   4.94401347
_cell_angle_alpha   90.00000000
_cell_angle_beta   105.27706766
_cell_angle_gamma   90.00000000
_symmetry_Int_Tables_number   1
_chemical_formula_structural   Mg2Mn3O8
_chemical_formula_sum   'Mg4 Mn6 O16'
_cell_volume   278.21383510
_cell_formula_units_Z   2
loop_
 _symmetry_equiv_pos_site_id
 _symmetry_equiv_pos_as_xyz
  1  'x, y, z'
loop_
 _atom_site_type_symbol
 _atom_site_label
 _atom_site_symmetry_multiplicity
 _atom_site_fract_x
 _atom_site_fract_y
 _atom_site_fract_z
 _atom_site_occupancy
  Mg  Mg0  1  0.21533600  0.50000000  0.62201050  1
  Mg  Mg1  1  0.28466400  0.00000000  0.37798950  1
  Mg  Mg2  1  0.71533600  0.00000000  0.62201050  1
  Mg  Mg3  1  0.78466400  0.50000000  0.37798950  1
  Mn  Mn4  1  0.00000000  0.00000000  0.50000000  1
  Mn  Mn5  1  0.00000000  0.74243450  0.00000000  1
  Mn  Mn6  1  0.50000000  0.75756550  0.00000000  1
  Mn  Mn7  1  0.50000000  0.50000000  0.50000000  1
  Mn  Mn8  1  0.50000000  0.24243450  0.00000000  1
  Mn  Mn9  1  0.00000000  0.25756550  0.00000000  1
  O  O10  1  0.39762300  0.50000000  0.11267350  1
  O  O11  1  0.11505500  0.77381500  0.38062550  1
  O  O12  1  0.11505500  0.22618500  0.38062550  1
  O  O13  1  0.10574100  0.50000000  0.91077850  1
  O  O14  1  0.39425900  0.00000000  0.08922150  1
  O  O15  1  0.38494500  0.27381500  0.61937450  1
  O  O16  1  0.38494500  0.72618500  0.61937450  1
  O  O17  1  0.10237700  0.00000000  0.88732650  1
  O  O18  1  0.89762300  0.00000000  0.11267350  1
  O  O19  1  0.61505500  0.27381500  0.38062550  1
  O  O20  1  0.61505500  0.72618500  0.38062550  1
  O  O21  1  0.60574100  0.00000000  0.91077850  1
  O  O22  1  0.89425900  0.50000000  0.08922150  1
  O  O23  1  0.88494500  0.77381500  0.61937450  1
  O  O24  1  0.88494500  0.22618500  0.61937450  1
  O  O25  1  0.60237700  0.50000000  0.88732650  1
