# generated using pymatgen
data_Ti2Ni3Te3O16
_symmetry_space_group_name_H-M   'P 1'
_cell_length_a   10.56178000
_cell_length_b   6.07322800
_cell_length_c   9.31041101
_cell_angle_alpha   90.00000000
_cell_angle_beta   91.36989458
_cell_angle_gamma   90.00000000
_symmetry_Int_Tables_number   1
_chemical_formula_structural   Ti2Ni3Te3O16
_chemical_formula_sum   'Ti4 Ni6 Te6 O32'
_cell_volume   597.03722840
_cell_formula_units_Z   2
loop_
 _symmetry_equiv_pos_site_id
 _symmetry_equiv_pos_as_xyz
  1  'x, y, z'
loop_
 _atom_site_type_symbol
 _atom_site_label
 _atom_site_symmetry_multiplicity
 _atom_site_fract_x
 _atom_site_fract_y
 _atom_site_fract_z
 _atom_site_occupancy
  Ti  Ti0  1  0.67718800  0.00000000  0.51309300  1
  Ti  Ti1  1  0.86227800  0.50000000  0.96010700  1
  Ti  Ti2  1  0.17718800  0.50000000  0.51309300  1
  Ti  Ti3  1  0.36227800  0.00000000  0.96010700  1
  Ni  Ni4  1  0.82655600  0.00000000  0.21025600  1
  Ni  Ni5  1  0.91827800  0.75084100  0.70463100  1
  Ni  Ni6  1  0.91827800  0.24915900  0.70463100  1
  Ni  Ni7  1  0.32655600  0.50000000  0.21025600  1
  Ni  Ni8  1  0.41827800  0.25084100  0.70463100  1
  Ni  Ni9  1  0.41827800  0.74915900  0.70463100  1
  Te  Te10  1  0.57802350  0.24881450  0.21509100  1
  Te  Te11  1  0.57802350  0.75118550  0.21509100  1
  Te  Te12  1  0.67042000  0.50000000  0.71364700  1
  Te  Te13  1  0.07802350  0.74881450  0.21509100  1
  Te  Te14  1  0.07802350  0.25118550  0.21509100  1
  Te  Te15  1  0.17042000  0.00000000  0.71364700  1
  O  O16  1  0.59538400  0.24876000  0.59853700  1
  O  O17  1  0.51013400  0.00000000  0.33552600  1
  O  O18  1  0.65114100  0.00000000  0.09716800  1
  O  O19  1  0.50045600  0.50000000  0.32374900  1
  O  O20  1  0.51175900  0.50000000  0.80721900  1
  O  O21  1  0.59538400  0.75124000  0.59853700  1
  O  O22  1  0.72568900  0.22202400  0.33538600  1
  O  O23  1  0.72568900  0.77797600  0.33538600  1
  O  O24  1  0.65461900  0.50000000  0.10773100  1
  O  O25  1  0.82825900  0.00000000  0.59066000  1
  O  O26  1  0.75911150  0.70921350  0.84707000  1
  O  O27  1  0.75911150  0.29078650  0.84707000  1
  O  O28  1  0.82166200  0.50000000  0.60290000  1
  O  O29  1  0.92268450  0.74740550  0.10446800  1
  O  O30  1  0.98701200  0.50000000  0.84328800  1
  O  O31  1  0.92268450  0.25259450  0.10446800  1
  O  O32  1  0.09538400  0.74876000  0.59853700  1
  O  O33  1  0.01013400  0.50000000  0.33552600  1
  O  O34  1  0.15114100  0.50000000  0.09716800  1
  O  O35  1  0.00045600  0.00000000  0.32374900  1
  O  O36  1  0.01175900  0.00000000  0.80721900  1
  O  O37  1  0.09538400  0.25124000  0.59853700  1
  O  O38  1  0.22568900  0.72202400  0.33538600  1
  O  O39  1  0.22568900  0.27797600  0.33538600  1
  O  O40  1  0.15461900  0.00000000  0.10773100  1
  O  O41  1  0.32825900  0.50000000  0.59066000  1
  O  O42  1  0.25911150  0.20921350  0.84707000  1
  O  O43  1  0.25911150  0.79078650  0.84707000  1
  O  O44  1  0.32166200  0.00000000  0.60290000  1
  O  O45  1  0.42268450  0.24740550  0.10446800  1
  O  O46  1  0.48701200  0.00000000  0.84328800  1
  O  O47  1  0.42268450  0.75259450  0.10446800  1
