# generated using pymatgen
data_LiCoH8(CO5)2
_symmetry_space_group_name_H-M   'P 1'
_cell_length_a   8.39565000
_cell_length_b   6.76633000
_cell_length_c   15.28126709
_cell_angle_alpha   90.00000000
_cell_angle_beta   100.87266998
_cell_angle_gamma   90.00000000
_symmetry_Int_Tables_number   1
_chemical_formula_structural   LiCoH8(CO5)2
_chemical_formula_sum   'Li4 Co4 H32 C8 O40'
_cell_volume   852.51089075
_cell_formula_units_Z   4
loop_
 _symmetry_equiv_pos_site_id
 _symmetry_equiv_pos_as_xyz
  1  'x, y, z'
loop_
 _atom_site_type_symbol
 _atom_site_label
 _atom_site_symmetry_multiplicity
 _atom_site_fract_x
 _atom_site_fract_y
 _atom_site_fract_z
 _atom_site_occupancy
  Li  Li0  1  0.91711800  0.34655700  0.53516500  1
  Li  Li1  1  0.91711800  0.65344300  0.03516500  1
  Li  Li2  1  0.41711800  0.84655700  0.53516500  1
  Li  Li3  1  0.41711800  0.15344300  0.03516500  1
  Co  Co4  1  0.99923500  0.06161500  0.75008500  1
  Co  Co5  1  0.99923500  0.93838500  0.25008500  1
  Co  Co6  1  0.49923500  0.56161500  0.75008500  1
  Co  Co7  1  0.49923500  0.43838500  0.25008500  1
  H  H8  1  0.31374400  0.54157800  0.05588500  1
  H  H9  1  0.34736750  0.48295050  0.45863300  1
  H  H10  1  0.12099450  0.35174350  0.10876500  1
  H  H11  1  0.31374400  0.45842200  0.55588500  1
  H  H12  1  0.05516900  0.32631200  0.38420100  1
  H  H13  1  0.34736750  0.51704950  0.95863300  1
  H  H14  1  0.94525000  0.32776500  0.12435000  1
  H  H15  1  0.86878150  0.31833550  0.37326300  1
  H  H16  1  0.12099450  0.64825650  0.60876500  1
  H  H17  1  0.05516900  0.67368800  0.88420100  1
  H  H18  1  0.64192550  0.46235250  0.04211400  1
  H  H19  1  0.94525000  0.67223500  0.62435000  1
  H  H20  1  0.68403650  0.54186550  0.44585800  1
  H  H21  1  0.86878150  0.68166450  0.87326300  1
  H  H22  1  0.64192550  0.53764750  0.54211400  1
  H  H23  1  0.68403650  0.45813450  0.94585800  1
  H  H24  1  0.81374400  0.04157800  0.05588500  1
  H  H25  1  0.84736750  0.98295050  0.45863300  1
  H  H26  1  0.62099450  0.85174350  0.10876500  1
  H  H27  1  0.81374400  0.95842200  0.55588500  1
  H  H28  1  0.55516900  0.82631200  0.38420100  1
  H  H29  1  0.84736750  0.01704950  0.95863300  1
  H  H30  1  0.44525000  0.82776500  0.12435000  1
  H  H31  1  0.36878150  0.81833550  0.37326300  1
  H  H32  1  0.62099450  0.14825650  0.60876500  1
  H  H33  1  0.55516900  0.17368800  0.88420100  1
  H  H34  1  0.14192550  0.96235250  0.04211400  1
  H  H35  1  0.44525000  0.17223500  0.62435000  1
  H  H36  1  0.18403650  0.04186550  0.44585800  1
  H  H37  1  0.36878150  0.18166450  0.87326300  1
  H  H38  1  0.14192550  0.03764750  0.54211400  1
  H  H39  1  0.18403650  0.95813450  0.94585800  1
  C  C40  1  0.21912700  0.26528400  0.71102100  1
  C  C41  1  0.21912700  0.73471600  0.21102100  1
  C  C42  1  0.77733750  0.26139950  0.78685300  1
  C  C43  1  0.77733750  0.73860050  0.28685300  1
  C  C44  1  0.71912700  0.76528400  0.71102100  1
  C  C45  1  0.71912700  0.23471600  0.21102100  1
  C  C46  1  0.27733750  0.76139950  0.78685300  1
  C  C47  1  0.27733750  0.23860050  0.28685300  1
  O  O48  1  0.34724250  0.44651950  0.01476500  1
  O  O49  1  0.33803650  0.35827850  0.68626700  1
  O  O50  1  0.33803650  0.64172150  0.18626700  1
  O  O51  1  0.11830800  0.15994000  0.65435200  1
  O  O52  1  0.19201450  0.26520150  0.79158900  1
  O  O53  1  0.34724250  0.55348050  0.51476500  1
  O  O54  1  0.02089850  0.42501350  0.10796000  1
  O  O55  1  0.19201450  0.73479850  0.29158900  1
  O  O56  1  0.96661050  0.36846850  0.41316900  1
  O  O57  1  0.87003500  0.14616000  0.84260100  1
  O  O58  1  0.11830800  0.84006000  0.15435200  1
  O  O59  1  0.02089850  0.57498650  0.60796000  1
  O  O60  1  0.81477600  0.27487000  0.70878500  1
  O  O61  1  0.96661050  0.63153150  0.91316900  1
  O  O62  1  0.70486650  0.47200950  0.50298100  1
  O  O63  1  0.81477600  0.72513000  0.20878500  1
  O  O64  1  0.87003500  0.85384000  0.34260100  1
  O  O65  1  0.65595000  0.35264500  0.80992900  1
  O  O66  1  0.65595000  0.64735500  0.30992900  1
  O  O67  1  0.70486650  0.52799050  0.00298100  1
  O  O68  1  0.84724250  0.94651950  0.01476500  1
  O  O69  1  0.83803650  0.85827850  0.68626700  1
  O  O70  1  0.83803650  0.14172150  0.18626700  1
  O  O71  1  0.61830800  0.65994000  0.65435200  1
  O  O72  1  0.69201450  0.76520150  0.79158900  1
  O  O73  1  0.84724250  0.05348050  0.51476500  1
  O  O74  1  0.52089850  0.92501350  0.10796000  1
  O  O75  1  0.69201450  0.23479850  0.29158900  1
  O  O76  1  0.46661050  0.86846850  0.41316900  1
  O  O77  1  0.37003500  0.64616000  0.84260100  1
  O  O78  1  0.61830800  0.34006000  0.15435200  1
  O  O79  1  0.52089850  0.07498650  0.60796000  1
  O  O80  1  0.31477600  0.77487000  0.70878500  1
  O  O81  1  0.46661050  0.13153150  0.91316900  1
  O  O82  1  0.20486650  0.97200950  0.50298100  1
  O  O83  1  0.31477600  0.22513000  0.20878500  1
  O  O84  1  0.37003500  0.35384000  0.34260100  1
  O  O85  1  0.15595000  0.85264500  0.80992900  1
  O  O86  1  0.15595000  0.14735500  0.30992900  1
  O  O87  1  0.20486650  0.02799050  0.00298100  1
