# generated using pymatgen
data_MnV4O12
_symmetry_space_group_name_H-M   'P 1'
_cell_length_a   9.95433416
_cell_length_b   8.78636013
_cell_length_c   6.01885393
_cell_angle_alpha   90.00000000
_cell_angle_beta   110.17426597
_cell_angle_gamma   90.00000000
_symmetry_Int_Tables_number   1
_chemical_formula_structural   MnV4O12
_chemical_formula_sum   'Mn2 V8 O24'
_cell_volume   494.12609068
_cell_formula_units_Z   2
loop_
 _symmetry_equiv_pos_site_id
 _symmetry_equiv_pos_as_xyz
  1  'x, y, z'
loop_
 _atom_site_type_symbol
 _atom_site_label
 _atom_site_symmetry_multiplicity
 _atom_site_fract_x
 _atom_site_fract_y
 _atom_site_fract_z
 _atom_site_occupancy
  Mn  Mn0  1  0.00000000  0.08070800  0.50000000  1
  Mn  Mn1  1  0.50000000  0.58070800  0.50000000  1
  V  V2  1  0.21440425  0.58950625  0.00945850  1
  V  V3  1  0.78559575  0.58950625  0.99054150  1
  V  V4  1  0.19925275  0.41249375  0.48477750  1
  V  V5  1  0.80074725  0.41249375  0.51522250  1
  V  V6  1  0.71440425  0.08950625  0.00945850  1
  V  V7  1  0.28559575  0.08950625  0.99054150  1
  V  V8  1  0.69925275  0.91249375  0.48477750  1
  V  V9  1  0.30074725  0.91249375  0.51522250  1
  O  O10  1  0.39638150  0.57911600  0.17081000  1
  O  O11  1  0.60361850  0.57911600  0.82919000  1
  O  O12  1  0.17080475  0.76813525  0.98535250  1
  O  O13  1  0.82919525  0.76813525  0.01464750  1
  O  O14  1  0.38047000  0.41674600  0.54748400  1
  O  O15  1  0.61953000  0.41674600  0.45251600  1
  O  O16  1  0.12841725  0.50396475  0.20460450  1
  O  O17  1  0.87158275  0.50396475  0.79539550  1
  O  O18  1  0.15647775  0.51321275  0.70445550  1
  O  O19  1  0.84352225  0.51321275  0.29554450  1
  O  O20  1  0.13299600  0.22828850  0.45947200  1
  O  O21  1  0.86700400  0.22828850  0.54052800  1
  O  O22  1  0.89638150  0.07911600  0.17081000  1
  O  O23  1  0.10361850  0.07911600  0.82919000  1
  O  O24  1  0.67080475  0.26813525  0.98535250  1
  O  O25  1  0.32919525  0.26813525  0.01464750  1
  O  O26  1  0.88047000  0.91674600  0.54748400  1
  O  O27  1  0.11953000  0.91674600  0.45251600  1
  O  O28  1  0.62841725  0.00396475  0.20460450  1
  O  O29  1  0.37158275  0.00396475  0.79539550  1
  O  O30  1  0.65647775  0.01321275  0.70445550  1
  O  O31  1  0.34352225  0.01321275  0.29554450  1
  O  O32  1  0.63299600  0.72828850  0.45947200  1
  O  O33  1  0.36700400  0.72828850  0.54052800  1
