# generated using pymatgen
data_V2SiO4
_symmetry_space_group_name_H-M   'P 1'
_cell_length_a   4.91625600
_cell_length_b   6.21067222
_cell_length_c   10.67302189
_cell_angle_alpha   90.00000000
_cell_angle_beta   90.00000000
_cell_angle_gamma   90.00000000
_symmetry_Int_Tables_number   1
_chemical_formula_structural   V2SiO4
_chemical_formula_sum   'V8 Si4 O16'
_cell_volume   325.88209454
_cell_formula_units_Z   4
loop_
 _symmetry_equiv_pos_site_id
 _symmetry_equiv_pos_as_xyz
  1  'x, y, z'
loop_
 _atom_site_type_symbol
 _atom_site_label
 _atom_site_symmetry_multiplicity
 _atom_site_fract_x
 _atom_site_fract_y
 _atom_site_fract_z
 _atom_site_occupancy
  V  V0  1  0.00000000  0.50000000  0.00000000  1
  V  V1  1  0.50000000  0.50000000  0.50000000  1
  V  V2  1  0.00000000  0.00000000  0.00000000  1
  V  V3  1  0.50000000  0.00000000  0.50000000  1
  V  V4  1  0.00589250  0.75000000  0.72598600  1
  V  V5  1  0.49410750  0.75000000  0.22598600  1
  V  V6  1  0.50589250  0.25000000  0.77401400  1
  V  V7  1  0.99410750  0.25000000  0.27401400  1
  Si  Si8  1  0.07174950  0.25000000  0.59504600  1
  Si  Si9  1  0.42825050  0.25000000  0.09504600  1
  Si  Si10  1  0.57174950  0.75000000  0.90495400  1
  Si  Si11  1  0.92825050  0.75000000  0.40495400  1
  O  O12  1  0.20684050  0.25000000  0.45126500  1
  O  O13  1  0.29315950  0.25000000  0.95126500  1
  O  O14  1  0.70684050  0.75000000  0.04873500  1
  O  O15  1  0.79315950  0.75000000  0.54873500  1
  O  O16  1  0.26101450  0.75000000  0.40468600  1
  O  O17  1  0.23898550  0.75000000  0.90468600  1
  O  O18  1  0.76101450  0.25000000  0.09531400  1
  O  O19  1  0.73898550  0.25000000  0.59531400  1
  O  O20  1  0.22029550  0.03800350  0.66182200  1
  O  O21  1  0.22029550  0.46199650  0.66182200  1
  O  O22  1  0.27970450  0.03800350  0.16182200  1
  O  O23  1  0.27970450  0.46199650  0.16182200  1
  O  O24  1  0.72029550  0.96199650  0.83817800  1
  O  O25  1  0.72029550  0.53800350  0.83817800  1
  O  O26  1  0.77970450  0.96199650  0.33817800  1
  O  O27  1  0.77970450  0.53800350  0.33817800  1
