# generated using pymatgen
data_Li13Mn2O12
_symmetry_space_group_name_H-M   'P 1'
_cell_length_a   5.64186247
_cell_length_b   5.68946293
_cell_length_c   9.57111283
_cell_angle_alpha   90.00741745
_cell_angle_beta   106.32986151
_cell_angle_gamma   119.59699751
_symmetry_Int_Tables_number   1
_chemical_formula_structural   Li13Mn2O12
_chemical_formula_sum   'Li13 Mn2 O12'
_cell_volume   252.78000945
_cell_formula_units_Z   1
loop_
 _symmetry_equiv_pos_site_id
 _symmetry_equiv_pos_as_xyz
  1  'x, y, z'
loop_
 _atom_site_type_symbol
 _atom_site_label
 _atom_site_symmetry_multiplicity
 _atom_site_fract_x
 _atom_site_fract_y
 _atom_site_fract_z
 _atom_site_occupancy
  Li  Li0  1  0.11865400  0.48002800  0.12665800  1
  Li  Li1  1  0.25578400  0.94565000  0.25498800  1
  Li  Li2  1  0.52283700  0.27592000  0.53613700  1
  Li  Li3  1  0.39400500  0.85750700  0.88247700  1
  Li  Li4  1  0.50131800  0.33623600  0.96085100  1
  Li  Li5  1  0.71104600  0.57141300  0.24699500  1
  Li  Li6  1  0.07882600  0.93814400  0.63492100  1
  Li  Li7  1  0.92528700  0.04126300  0.37744800  1
  Li  Li8  1  0.27850300  0.43375600  0.73887900  1
  Li  Li9  1  0.62957200  0.06624900  0.13865700  1
  Li  Li10  1  0.47971500  0.72691400  0.45874700  1
  Li  Li11  1  0.74355700  0.06823700  0.74371500  1
  Li  Li12  1  0.88805800  0.53878500  0.86437400  1
  Mn  Mn13  1  0.98799000  0.99832900  0.99953000  1
  Mn  Mn14  1  0.99988200  0.49852600  0.49521900  1
  O  O15  1  0.77128000  0.19894100  0.95894700  1
  O  O16  1  0.08056100  0.56577100  0.31409900  1
  O  O17  1  0.35343800  0.84423800  0.60438800  1
  O  O18  1  0.63560100  0.67767400  0.88606000  1
  O  O19  1  0.89457900  0.93339300  0.17989900  1
  O  O20  1  0.21383100  0.31468900  0.53976400  1
  O  O21  1  0.78936300  0.68615300  0.45585700  1
  O  O22  1  0.11223200  0.08277800  0.82528800  1
  O  O23  1  0.34352000  0.31459300  0.11649200  1
  O  O24  1  0.65088900  0.15263000  0.38935400  1
  O  O25  1  0.92255700  0.44480600  0.68174700  1
  O  O26  1  0.20610400  0.81114200  0.03946600  1
