# generated using pymatgen
data_Fe10O9F11
_symmetry_space_group_name_H-M   'P 1'
_cell_length_a   6.60849000
_cell_length_b   6.83656800
_cell_length_c   15.53430141
_cell_angle_alpha   90.00000000
_cell_angle_beta   90.01311574
_cell_angle_gamma   90.00000000
_symmetry_Int_Tables_number   1
_chemical_formula_structural   Fe10O9F11
_chemical_formula_sum   'Fe20 O18 F22'
_cell_volume   701.83026287
_cell_formula_units_Z   2
loop_
 _symmetry_equiv_pos_site_id
 _symmetry_equiv_pos_as_xyz
  1  'x, y, z'
loop_
 _atom_site_type_symbol
 _atom_site_label
 _atom_site_symmetry_multiplicity
 _atom_site_fract_x
 _atom_site_fract_y
 _atom_site_fract_z
 _atom_site_occupancy
  Fe  Fe0  1  0.50000000  0.49942300  0.00000000  1
  Fe  Fe1  1  0.97857200  0.00749600  0.79270100  1
  Fe  Fe2  1  0.47578150  0.52541150  0.59809600  1
  Fe  Fe3  1  0.52421850  0.52541150  0.40190400  1
  Fe  Fe4  1  0.02142800  0.00749600  0.20729900  1
  Fe  Fe5  1  0.51060500  0.00259200  0.90556900  1
  Fe  Fe6  1  0.50000000  0.98230100  0.50000000  1
  Fe  Fe7  1  0.52112100  0.97657900  0.70155200  1
  Fe  Fe8  1  0.47887900  0.97657900  0.29844800  1
  Fe  Fe9  1  0.48939500  0.00259200  0.09443100  1
  Fe  Fe10  1  0.00000000  0.99942300  0.00000000  1
  Fe  Fe11  1  0.47857200  0.50749600  0.79270100  1
  Fe  Fe12  1  0.97578150  0.02541150  0.59809600  1
  Fe  Fe13  1  0.02421850  0.02541150  0.40190400  1
  Fe  Fe14  1  0.52142800  0.50749600  0.20729900  1
  Fe  Fe15  1  0.01060500  0.50259200  0.90556900  1
  Fe  Fe16  1  0.00000000  0.48230100  0.50000000  1
  Fe  Fe17  1  0.02112100  0.47657900  0.70155200  1
  Fe  Fe18  1  0.97887900  0.47657900  0.29844800  1
  Fe  Fe19  1  0.98939500  0.50259200  0.09443100  1
  O  O20  1  0.49441000  0.69484200  0.69877200  1
  O  O21  1  0.50000000  0.69583000  0.50000000  1
  O  O22  1  0.50559000  0.69484200  0.30122800  1
  O  O23  1  0.29808350  0.00184150  0.99769400  1
  O  O24  1  0.31484500  0.00055900  0.40204900  1
  O  O25  1  0.31734550  0.99831750  0.19491100  1
  O  O26  1  0.70191650  0.00184150  0.00230600  1
  O  O27  1  0.68265450  0.99831750  0.80508900  1
  O  O28  1  0.68515500  0.00055900  0.59795100  1
  O  O29  1  0.99441000  0.19484200  0.69877200  1
  O  O30  1  0.00000000  0.19583000  0.50000000  1
  O  O31  1  0.00559000  0.19484200  0.30122800  1
  O  O32  1  0.79808350  0.50184150  0.99769400  1
  O  O33  1  0.81484500  0.50055900  0.40204900  1
  O  O34  1  0.81734550  0.49831750  0.19491100  1
  O  O35  1  0.20191650  0.50184150  0.00230600  1
  O  O36  1  0.18265450  0.49831750  0.80508900  1
  O  O37  1  0.18515500  0.50055900  0.59795100  1
  F  F38  1  0.49657450  0.69550350  0.90151300  1
  F  F39  1  0.50342550  0.69550350  0.09848700  1
  F  F40  1  0.29501300  0.99908900  0.80317000  1
  F  F41  1  0.29487850  0.99851150  0.60224700  1
  F  F42  1  0.70512150  0.99851150  0.39775300  1
  F  F43  1  0.70498700  0.99908900  0.19683000  1
  F  F44  1  0.49755750  0.30799050  0.90020900  1
  F  F45  1  0.50000000  0.30873000  0.50000000  1
  F  F46  1  0.49352050  0.29812350  0.69796300  1
  F  F47  1  0.50244250  0.30799050  0.09979100  1
  F  F48  1  0.50647950  0.29812350  0.30203700  1
  F  F49  1  0.99657450  0.19550350  0.90151300  1
  F  F50  1  0.00342550  0.19550350  0.09848700  1
  F  F51  1  0.79501300  0.49908900  0.80317000  1
  F  F52  1  0.79487850  0.49851150  0.60224700  1
  F  F53  1  0.20512150  0.49851150  0.39775300  1
  F  F54  1  0.20498700  0.49908900  0.19683000  1
  F  F55  1  0.99755750  0.80799050  0.90020900  1
  F  F56  1  0.00000000  0.80873000  0.50000000  1
  F  F57  1  0.99352050  0.79812350  0.69796300  1
  F  F58  1  0.00244250  0.80799050  0.09979100  1
  F  F59  1  0.00647950  0.79812350  0.30203700  1
