# generated using pymatgen
data_CrSO4
_symmetry_space_group_name_H-M   'P 1'
_cell_length_a   5.36526322
_cell_length_b   8.08264519
_cell_length_c   6.98952315
_cell_angle_alpha   90.00000000
_cell_angle_beta   90.00000000
_cell_angle_gamma   90.00000000
_symmetry_Int_Tables_number   1
_chemical_formula_structural   CrSO4
_chemical_formula_sum   'Cr4 S4 O16'
_cell_volume   303.10429832
_cell_formula_units_Z   4
loop_
 _symmetry_equiv_pos_site_id
 _symmetry_equiv_pos_as_xyz
  1  'x, y, z'
loop_
 _atom_site_type_symbol
 _atom_site_label
 _atom_site_symmetry_multiplicity
 _atom_site_fract_x
 _atom_site_fract_y
 _atom_site_fract_z
 _atom_site_occupancy
  Cr  Cr0  1  0.50000000  0.50000000  0.50000000  1
  Cr  Cr1  1  0.50000000  0.50000000  0.00000000  1
  Cr  Cr2  1  0.00000000  0.00000000  0.50000000  1
  Cr  Cr3  1  0.00000000  0.00000000  0.00000000  1
  S  S4  1  0.00000000  0.34617175  0.75000000  1
  S  S5  1  0.00000000  0.65382825  0.25000000  1
  S  S6  1  0.50000000  0.84617175  0.75000000  1
  S  S7  1  0.50000000  0.15382825  0.25000000  1
  O  O8  1  0.77319325  0.45398375  0.75000000  1
  O  O9  1  0.77319325  0.54601625  0.25000000  1
  O  O10  1  0.22680675  0.45398375  0.75000000  1
  O  O11  1  0.22680675  0.54601625  0.25000000  1
  O  O12  1  0.00000000  0.24523050  0.57367050  1
  O  O13  1  0.00000000  0.24523050  0.92632950  1
  O  O14  1  0.00000000  0.75476950  0.07367050  1
  O  O15  1  0.00000000  0.75476950  0.42632950  1
  O  O16  1  0.27319325  0.95398375  0.75000000  1
  O  O17  1  0.27319325  0.04601625  0.25000000  1
  O  O18  1  0.72680675  0.95398375  0.75000000  1
  O  O19  1  0.72680675  0.04601625  0.25000000  1
  O  O20  1  0.50000000  0.74523050  0.57367050  1
  O  O21  1  0.50000000  0.74523050  0.92632950  1
  O  O22  1  0.50000000  0.25476950  0.07367050  1
  O  O23  1  0.50000000  0.25476950  0.42632950  1
