# generated using pymatgen
data_Li2Mn2CrO6
_symmetry_space_group_name_H-M   'P 1'
_cell_length_a   5.22415200
_cell_length_b   8.78976400
_cell_length_c   10.20918100
_cell_angle_alpha   90.00000000
_cell_angle_beta   90.00000000
_cell_angle_gamma   90.00000000
_symmetry_Int_Tables_number   1
_chemical_formula_structural   Li2Mn2CrO6
_chemical_formula_sum   'Li8 Mn8 Cr4 O24'
_cell_volume   468.79602736
_cell_formula_units_Z   4
loop_
 _symmetry_equiv_pos_site_id
 _symmetry_equiv_pos_as_xyz
  1  'x, y, z'
loop_
 _atom_site_type_symbol
 _atom_site_label
 _atom_site_symmetry_multiplicity
 _atom_site_fract_x
 _atom_site_fract_y
 _atom_site_fract_z
 _atom_site_occupancy
  Li  Li0  1  0.39739400  0.25000000  0.75000000  1
  Li  Li1  1  0.60260600  0.25000000  0.25000000  1
  Li  Li2  1  0.39739400  0.75000000  0.75000000  1
  Li  Li3  1  0.60260600  0.75000000  0.25000000  1
  Li  Li4  1  0.89739400  0.75000000  0.75000000  1
  Li  Li5  1  0.10260600  0.75000000  0.25000000  1
  Li  Li6  1  0.89739400  0.25000000  0.75000000  1
  Li  Li7  1  0.10260600  0.25000000  0.25000000  1
  Mn  Mn8  1  0.50000000  0.33717700  0.50000000  1
  Mn  Mn9  1  0.50000000  0.16282300  0.00000000  1
  Mn  Mn10  1  0.50000000  0.83717700  0.00000000  1
  Mn  Mn11  1  0.50000000  0.66282300  0.50000000  1
  Mn  Mn12  1  0.00000000  0.83717700  0.50000000  1
  Mn  Mn13  1  0.00000000  0.66282300  0.00000000  1
  Mn  Mn14  1  0.00000000  0.33717700  0.00000000  1
  Mn  Mn15  1  0.00000000  0.16282300  0.50000000  1
  Cr  Cr16  1  0.00000000  0.00000000  0.00000000  1
  Cr  Cr17  1  0.50000000  0.00000000  0.50000000  1
  Cr  Cr18  1  0.50000000  0.50000000  0.00000000  1
  Cr  Cr19  1  0.00000000  0.50000000  0.50000000  1
  O  O20  1  0.34582000  0.32490700  0.10610700  1
  O  O21  1  0.65418000  0.67509300  0.89389300  1
  O  O22  1  0.34582000  0.17509300  0.39389300  1
  O  O23  1  0.65418000  0.17509300  0.60610700  1
  O  O24  1  0.16540400  0.00000000  0.59605700  1
  O  O25  1  0.33459600  0.00000000  0.09605700  1
  O  O26  1  0.66540400  0.00000000  0.90394300  1
  O  O27  1  0.65418000  0.32490700  0.89389300  1
  O  O28  1  0.83459600  0.00000000  0.40394300  1
  O  O29  1  0.34582000  0.82490700  0.39389300  1
  O  O30  1  0.65418000  0.82490700  0.60610700  1
  O  O31  1  0.34582000  0.67509300  0.10610700  1
  O  O32  1  0.84582000  0.82490700  0.10610700  1
  O  O33  1  0.15418000  0.17509300  0.89389300  1
  O  O34  1  0.84582000  0.67509300  0.39389300  1
  O  O35  1  0.15418000  0.67509300  0.60610700  1
  O  O36  1  0.66540400  0.50000000  0.59605700  1
  O  O37  1  0.83459600  0.50000000  0.09605700  1
  O  O38  1  0.16540400  0.50000000  0.90394300  1
  O  O39  1  0.15418000  0.82490700  0.89389300  1
  O  O40  1  0.33459600  0.50000000  0.40394300  1
  O  O41  1  0.84582000  0.32490700  0.39389300  1
  O  O42  1  0.15418000  0.32490700  0.60610700  1
  O  O43  1  0.84582000  0.17509300  0.10610700  1
