# generated using pymatgen
data_VGeO3
_symmetry_space_group_name_H-M   'P 1'
_cell_length_a   9.95834213
_cell_length_b   9.25272300
_cell_length_c   5.27290511
_cell_angle_alpha   90.00000000
_cell_angle_beta   100.01311141
_cell_angle_gamma   90.00000000
_symmetry_Int_Tables_number   1
_chemical_formula_structural   VGeO3
_chemical_formula_sum   'V8 Ge8 O24'
_cell_volume   478.45432310
_cell_formula_units_Z   8
loop_
 _symmetry_equiv_pos_site_id
 _symmetry_equiv_pos_as_xyz
  1  'x, y, z'
loop_
 _atom_site_type_symbol
 _atom_site_label
 _atom_site_symmetry_multiplicity
 _atom_site_fract_x
 _atom_site_fract_y
 _atom_site_fract_z
 _atom_site_occupancy
  V  V0  1  0.00000000  0.72677800  0.25000000  1
  V  V1  1  0.00000000  0.09123200  0.25000000  1
  V  V2  1  0.00000000  0.27322200  0.75000000  1
  V  V3  1  0.00000000  0.90876800  0.75000000  1
  V  V4  1  0.50000000  0.22677800  0.25000000  1
  V  V5  1  0.50000000  0.59123200  0.25000000  1
  V  V6  1  0.50000000  0.77322200  0.75000000  1
  V  V7  1  0.50000000  0.40876800  0.75000000  1
  Ge  Ge8  1  0.19997250  0.59431750  0.79140800  1
  Ge  Ge9  1  0.19997250  0.40568250  0.29140800  1
  Ge  Ge10  1  0.80002750  0.59431750  0.70859200  1
  Ge  Ge11  1  0.80002750  0.40568250  0.20859200  1
  Ge  Ge12  1  0.69997250  0.09431750  0.79140800  1
  Ge  Ge13  1  0.69997250  0.90568250  0.29140800  1
  Ge  Ge14  1  0.30002750  0.09431750  0.70859200  1
  Ge  Ge15  1  0.30002750  0.90568250  0.20859200  1
  O  O16  1  0.38071200  0.59291400  0.86284100  1
  O  O17  1  0.38071200  0.40708600  0.36284100  1
  O  O18  1  0.61928800  0.59291400  0.63715900  1
  O  O19  1  0.61928800  0.40708600  0.13715900  1
  O  O20  1  0.14118850  0.43418350  0.59832200  1
  O  O21  1  0.14118850  0.56581650  0.09832200  1
  O  O22  1  0.85881150  0.43418350  0.90167800  1
  O  O23  1  0.85881150  0.56581650  0.40167800  1
  O  O24  1  0.12052550  0.74170750  0.62769800  1
  O  O25  1  0.12052550  0.25829250  0.12769800  1
  O  O26  1  0.87947450  0.74170750  0.87230200  1
  O  O27  1  0.87947450  0.25829250  0.37230200  1
  O  O28  1  0.88071200  0.09291400  0.86284100  1
  O  O29  1  0.88071200  0.90708600  0.36284100  1
  O  O30  1  0.11928800  0.09291400  0.63715900  1
  O  O31  1  0.11928800  0.90708600  0.13715900  1
  O  O32  1  0.64118850  0.93418350  0.59832200  1
  O  O33  1  0.64118850  0.06581650  0.09832200  1
  O  O34  1  0.35881150  0.93418350  0.90167800  1
  O  O35  1  0.35881150  0.06581650  0.40167800  1
  O  O36  1  0.62052550  0.24170750  0.62769800  1
  O  O37  1  0.62052550  0.75829250  0.12769800  1
  O  O38  1  0.37947450  0.24170750  0.87230200  1
  O  O39  1  0.37947450  0.75829250  0.37230200  1
