# generated using pymatgen
data_Li4V5Cr2O12
_symmetry_space_group_name_H-M   'P 1'
_cell_length_a   5.11076700
_cell_length_b   9.14871600
_cell_length_c   9.92793580
_cell_angle_alpha   90.00000000
_cell_angle_beta   101.94334187
_cell_angle_gamma   90.00000000
_symmetry_Int_Tables_number   1
_chemical_formula_structural   Li4V5Cr2O12
_chemical_formula_sum   'Li8 V10 Cr4 O24'
_cell_volume   454.15138734
_cell_formula_units_Z   2
loop_
 _symmetry_equiv_pos_site_id
 _symmetry_equiv_pos_as_xyz
  1  'x, y, z'
loop_
 _atom_site_type_symbol
 _atom_site_label
 _atom_site_symmetry_multiplicity
 _atom_site_fract_x
 _atom_site_fract_y
 _atom_site_fract_z
 _atom_site_occupancy
  Li  Li0  1  0.00554100  0.08608400  0.26117500  1
  Li  Li1  1  0.49598900  0.07807000  0.74376400  1
  Li  Li2  1  0.75938400  0.41847300  0.49778300  1
  Li  Li3  1  0.50546600  0.41433000  0.73790900  1
  Li  Li4  1  0.99445900  0.58608400  0.73882500  1
  Li  Li5  1  0.50401100  0.57807000  0.25623600  1
  Li  Li6  1  0.24061600  0.91847300  0.50221700  1
  Li  Li7  1  0.49453400  0.91433000  0.26209100  1
  V  V8  1  0.26217000  0.07874500  0.99723200  1
  V  V9  1  0.74932100  0.07305200  0.50703300  1
  V  V10  1  0.99677900  0.25110700  0.74508900  1
  V  V11  1  0.50996500  0.25890800  0.25921400  1
  V  V12  1  0.25433700  0.42541200  0.99544500  1
  V  V13  1  0.25067900  0.57305200  0.49296700  1
  V  V14  1  0.00322100  0.75110700  0.25491100  1
  V  V15  1  0.73783000  0.57874500  0.00276800  1
  V  V16  1  0.49003500  0.75890800  0.74078600  1
  V  V17  1  0.74566300  0.92541200  0.00455500  1
  Cr  Cr18  1  0.24682000  0.25020100  0.49735300  1
  Cr  Cr19  1  0.76008200  0.25441400  0.00461900  1
  Cr  Cr20  1  0.23991800  0.75441400  0.99538100  1
  Cr  Cr21  1  0.75318000  0.75020100  0.50264700  1
  O  O22  1  0.12005800  0.10607500  0.62185000  1
  O  O23  1  0.87969200  0.10054600  0.88930600  1
  O  O24  1  0.86317100  0.22948700  0.38546300  1
  O  O25  1  0.38198900  0.09653300  0.38085500  1
  O  O26  1  0.14799900  0.24600300  0.11243600  1
  O  O27  1  0.63226200  0.10206100  0.12388100  1
  O  O28  1  0.62847900  0.23843500  0.62460800  1
  O  O29  1  0.13444600  0.40829600  0.61502000  1
  O  O30  1  0.86642800  0.40656100  0.87726100  1
  O  O31  1  0.37201100  0.24965600  0.87895400  1
  O  O32  1  0.38463500  0.40438900  0.38143600  1
  O  O33  1  0.62858400  0.41107600  0.11836100  1
  O  O34  1  0.87994200  0.60607500  0.37815000  1
  O  O35  1  0.12030800  0.60054600  0.11069400  1
  O  O36  1  0.13682900  0.72948700  0.61453700  1
  O  O37  1  0.61801100  0.59653300  0.61914500  1
  O  O38  1  0.85200100  0.74600300  0.88756400  1
  O  O39  1  0.36773800  0.60206100  0.87611900  1
  O  O40  1  0.37152100  0.73843500  0.37539200  1
  O  O41  1  0.86555400  0.90829600  0.38498000  1
  O  O42  1  0.13357200  0.90656100  0.12273900  1
  O  O43  1  0.62798900  0.74965600  0.12104600  1
  O  O44  1  0.61536500  0.90438900  0.61856400  1
  O  O45  1  0.37141600  0.91107600  0.88163900  1
