# generated using pymatgen
data_TbZr4O10
_symmetry_space_group_name_H-M   'P 1'
_cell_length_a   8.23960600
_cell_length_b   8.23960600
_cell_length_c   5.19436000
_cell_angle_alpha   90.00000000
_cell_angle_beta   90.00000000
_cell_angle_gamma   90.00000000
_symmetry_Int_Tables_number   1
_chemical_formula_structural   TbZr4O10
_chemical_formula_sum   'Tb2 Zr8 O20'
_cell_volume   352.65085074
_cell_formula_units_Z   2
loop_
 _symmetry_equiv_pos_site_id
 _symmetry_equiv_pos_as_xyz
  1  'x, y, z'
loop_
 _atom_site_type_symbol
 _atom_site_label
 _atom_site_symmetry_multiplicity
 _atom_site_fract_x
 _atom_site_fract_y
 _atom_site_fract_z
 _atom_site_occupancy
  Tb  Tb0  1  0.00000000  0.00000000  0.50000000  1
  Tb  Tb1  1  0.50000000  0.50000000  0.00000000  1
  Zr  Zr2  1  0.60229300  0.20006200  0.50000000  1
  Zr  Zr3  1  0.39770700  0.79993800  0.50000000  1
  Zr  Zr4  1  0.29993800  0.10229300  0.00000000  1
  Zr  Zr5  1  0.70006200  0.89770700  0.00000000  1
  Zr  Zr6  1  0.10229300  0.70006200  0.00000000  1
  Zr  Zr7  1  0.89770700  0.29993800  0.00000000  1
  Zr  Zr8  1  0.79993800  0.60229300  0.50000000  1
  Zr  Zr9  1  0.20006200  0.39770700  0.50000000  1
  O  O10  1  0.20782300  0.89850700  0.75820500  1
  O  O11  1  0.20782300  0.89850700  0.24179500  1
  O  O12  1  0.50000000  0.00000000  0.25000000  1
  O  O13  1  0.79217700  0.10149300  0.75820500  1
  O  O14  1  0.50000000  0.00000000  0.75000000  1
  O  O15  1  0.39850700  0.29217700  0.25820500  1
  O  O16  1  0.39850700  0.29217700  0.74179500  1
  O  O17  1  0.79217700  0.10149300  0.24179500  1
  O  O18  1  0.60149300  0.70782300  0.25820500  1
  O  O19  1  0.60149300  0.70782300  0.74179500  1
  O  O20  1  0.70782300  0.39850700  0.25820500  1
  O  O21  1  0.70782300  0.39850700  0.74179500  1
  O  O22  1  0.00000000  0.50000000  0.75000000  1
  O  O23  1  0.29217700  0.60149300  0.25820500  1
  O  O24  1  0.00000000  0.50000000  0.25000000  1
  O  O25  1  0.89850700  0.79217700  0.75820500  1
  O  O26  1  0.89850700  0.79217700  0.24179500  1
  O  O27  1  0.29217700  0.60149300  0.74179500  1
  O  O28  1  0.10149300  0.20782300  0.75820500  1
  O  O29  1  0.10149300  0.20782300  0.24179500  1
