# generated using pymatgen
data_Co21Cu3O32
_symmetry_space_group_name_H-M   'P 1'
_cell_length_a   5.76117937
_cell_length_b   5.76117937
_cell_length_c   56.38471953
_cell_angle_alpha   90.00000000
_cell_angle_beta   90.00000000
_cell_angle_gamma   120.00000000
_symmetry_Int_Tables_number   1
_chemical_formula_structural   Co21Cu3O32
_chemical_formula_sum   'Co63 Cu9 O96'
_cell_volume   1620.74559501
_cell_formula_units_Z   3
loop_
 _symmetry_equiv_pos_site_id
 _symmetry_equiv_pos_as_xyz
  1  'x, y, z'
loop_
 _atom_site_type_symbol
 _atom_site_label
 _atom_site_symmetry_multiplicity
 _atom_site_fract_x
 _atom_site_fract_y
 _atom_site_fract_z
 _atom_site_occupancy
  Co  Co0  1  0.16670033  0.83329967  0.05215467  1
  Co  Co1  1  0.33333333  0.66666667  0.01041533  1
  Co  Co2  1  0.66659933  0.83329967  0.05215467  1
  Co  Co3  1  0.16670033  0.33340067  0.05215467  1
  Co  Co4  1  0.33333333  0.66666667  0.10445500  1
  Co  Co5  1  0.00000000  0.00000000  0.09377133  1
  Co  Co6  1  0.66666667  0.33333333  0.08301433  1
  Co  Co7  1  0.83324400  0.66648800  0.13535800  1
  Co  Co8  1  0.33351200  0.16675600  0.13535800  1
  Co  Co9  1  0.99985800  0.49992900  0.21875300  1
  Co  Co10  1  0.00000000  0.00000000  0.18735067  1
  Co  Co11  1  0.66666667  0.33333333  0.17703900  1
  Co  Co12  1  0.83324400  0.16675600  0.13535800  1
  Co  Co13  1  0.50007100  0.49992900  0.21875300  1
  Co  Co14  1  0.00000000  0.00000000  0.24999000  1
  Co  Co15  1  0.16674950  0.33349900  0.30206300  1
  Co  Co16  1  0.50007100  0.00014200  0.21875300  1
  Co  Co17  1  0.66666667  0.33333333  0.27102233  1
  Co  Co18  1  0.16674950  0.83325050  0.30206300  1
  Co  Co19  1  0.33333333  0.66666667  0.26036500  1
  Co  Co20  1  0.66650100  0.83325050  0.30206300  1
  Co  Co21  1  0.83336700  0.16663300  0.38548800  1
  Co  Co22  1  0.00000000  0.00000000  0.34374867  1
  Co  Co23  1  0.33326600  0.16663300  0.38548800  1
  Co  Co24  1  0.83336700  0.66673400  0.38548800  1
  Co  Co25  1  0.00000000  0.00000000  0.43778833  1
  Co  Co26  1  0.66666667  0.33333333  0.42710467  1
  Co  Co27  1  0.33333333  0.66666667  0.41634767  1
  Co  Co28  1  0.49991067  0.99982133  0.46869133  1
  Co  Co29  1  0.00017867  0.50008933  0.46869133  1
  Co  Co30  1  0.66652467  0.83326233  0.55208633  1
  Co  Co31  1  0.66666667  0.33333333  0.52068400  1
  Co  Co32  1  0.33333333  0.66666667  0.51037233  1
  Co  Co33  1  0.49991067  0.50008933  0.46869133  1
  Co  Co34  1  0.16673767  0.83326233  0.55208633  1
  Co  Co35  1  0.66666667  0.33333333  0.58332333  1
  Co  Co36  1  0.83341617  0.66683233  0.63539633  1
  Co  Co37  1  0.16673767  0.33347533  0.55208633  1
  Co  Co38  1  0.33333333  0.66666667  0.60435567  1
  Co  Co39  1  0.83341617  0.16658383  0.63539633  1
  Co  Co40  1  0.00000000  0.00000000  0.59369833  1
  Co  Co41  1  0.33316767  0.16658383  0.63539633  1
  Co  Co42  1  0.50003367  0.49996633  0.71882133  1
  Co  Co43  1  0.66666667  0.33333333  0.67708200  1
  Co  Co44  1  0.99993267  0.49996633  0.71882133  1
  Co  Co45  1  0.50003367  0.00006733  0.71882133  1
  Co  Co46  1  0.66666667  0.33333333  0.77112167  1
  Co  Co47  1  0.33333333  0.66666667  0.76043800  1
  Co  Co48  1  0.00000000  0.00000000  0.74968100  1
  Co  Co49  1  0.16657733  0.33315467  0.80202467  1
  Co  Co50  1  0.66684533  0.83342267  0.80202467  1
  Co  Co51  1  0.33319133  0.16659567  0.88541967  1
  Co  Co52  1  0.33333333  0.66666667  0.85401733  1
  Co  Co53  1  0.00000000  0.00000000  0.84370567  1
  Co  Co54  1  0.16657733  0.83342267  0.80202467  1
  Co  Co55  1  0.83340433  0.16659567  0.88541967  1
  Co  Co56  1  0.33333333  0.66666667  0.91665667  1
  Co  Co57  1  0.50008283  0.00016567  0.96872967  1
  Co  Co58  1  0.83340433  0.66680867  0.88541967  1
  Co  Co59  1  0.00000000  0.00000000  0.93768900  1
  Co  Co60  1  0.50008283  0.49991717  0.96872967  1
  Co  Co61  1  0.66666667  0.33333333  0.92703167  1
  Co  Co62  1  0.99983433  0.49991717  0.96872967  1
  Cu  Cu63  1  0.00000000  0.00000000  0.00024500  1
  Cu  Cu64  1  0.66666667  0.33333333  0.02076233  1
  Cu  Cu65  1  0.33333333  0.66666667  0.16671600  1
  Cu  Cu66  1  0.66666667  0.33333333  0.33357833  1
  Cu  Cu67  1  0.33333333  0.66666667  0.35409567  1
  Cu  Cu68  1  0.00000000  0.00000000  0.50004933  1
  Cu  Cu69  1  0.33333333  0.66666667  0.66691167  1
  Cu  Cu70  1  0.00000000  0.00000000  0.68742900  1
  Cu  Cu71  1  0.66666667  0.33333333  0.83338267  1
  O  O72  1  0.03778500  0.51889250  0.03252600  1
  O  O73  1  0.48110750  0.51889250  0.03252600  1
  O  O74  1  0.33333333  0.66666667  0.06979633  1
  O  O75  1  0.00000000  0.00000000  0.03497367  1
  O  O76  1  0.96234100  0.48117050  0.15496100  1
  O  O77  1  0.85126850  0.70253700  0.07191500  1
  O  O78  1  0.29746300  0.14873150  0.07191500  1
  O  O79  1  0.14873017  0.29746033  0.11565033  1
  O  O80  1  0.48110750  0.96221500  0.03252600  1
  O  O81  1  0.14873017  0.85126983  0.11565033  1
  O  O82  1  0.81558767  0.18441233  0.19904133  1
  O  O83  1  0.00000000  0.00000000  0.15280800  1
  O  O84  1  0.85126850  0.14873150  0.07191500  1
  O  O85  1  0.51882950  0.48117050  0.15496100  1
  O  O86  1  0.66666667  0.33333333  0.11770567  1
  O  O87  1  0.51882950  0.03765900  0.15496100  1
  O  O88  1  0.18437283  0.36874567  0.23850867  1
  O  O89  1  0.70253967  0.85126983  0.11565033  1
  O  O90  1  0.81558767  0.63117533  0.19904133  1
  O  O91  1  0.36882467  0.18441233  0.19904133  1
  O  O92  1  0.66666667  0.33333333  0.23632933  1
  O  O93  1  0.33333333  0.66666667  0.20155000  1
  O  O94  1  0.00000000  0.00000000  0.28451300  1
  O  O95  1  0.18437283  0.81562717  0.23850867  1
  O  O96  1  0.85208433  0.14791567  0.32166767  1
  O  O97  1  0.63125433  0.81562717  0.23850867  1
  O  O98  1  0.29583133  0.14791567  0.32166767  1
  O  O99  1  0.85208433  0.70416867  0.32166767  1
  O  O100  1  0.48206433  0.96412867  0.28225667  1
  O  O101  1  0.03587133  0.51793567  0.28225667  1
  O  O102  1  0.33333333  0.66666667  0.31927833  1
  O  O103  1  0.48206433  0.51793567  0.28225667  1
  O  O104  1  0.70445167  0.85222583  0.36585933  1
  O  O105  1  0.14777417  0.85222583  0.36585933  1
  O  O106  1  0.00000000  0.00000000  0.40312967  1
  O  O107  1  0.66666667  0.33333333  0.36830700  1
  O  O108  1  0.62900767  0.81450383  0.48829433  1
  O  O109  1  0.51793517  0.03587033  0.40524833  1
  O  O110  1  0.96412967  0.48206483  0.40524833  1
  O  O111  1  0.81539683  0.63079367  0.44898367  1
  O  O112  1  0.14777417  0.29554833  0.36585933  1
  O  O113  1  0.81539683  0.18460317  0.44898367  1
  O  O114  1  0.48225433  0.51774567  0.53237467  1
  O  O115  1  0.66666667  0.33333333  0.48614133  1
  O  O116  1  0.51793517  0.48206483  0.40524833  1
  O  O117  1  0.18549617  0.81450383  0.48829433  1
  O  O118  1  0.33333333  0.66666667  0.45103900  1
  O  O119  1  0.18549617  0.37099233  0.48829433  1
  O  O120  1  0.85103950  0.70207900  0.57184200  1
  O  O121  1  0.36920633  0.18460317  0.44898367  1
  O  O122  1  0.48225433  0.96450867  0.53237467  1
  O  O123  1  0.03549133  0.51774567  0.53237467  1
  O  O124  1  0.33333333  0.66666667  0.56966267  1
  O  O125  1  0.00000000  0.00000000  0.53488333  1
  O  O126  1  0.66666667  0.33333333  0.61784633  1
  O  O127  1  0.85103950  0.14896050  0.57184200  1
  O  O128  1  0.51875100  0.48124900  0.65500100  1
  O  O129  1  0.29792100  0.14896050  0.57184200  1
  O  O130  1  0.96249800  0.48124900  0.65500100  1
  O  O131  1  0.51875100  0.03750200  0.65500100  1
  O  O132  1  0.14873100  0.29746200  0.61559000  1
  O  O133  1  0.70253800  0.85126900  0.61559000  1
  O  O134  1  0.00000000  0.00000000  0.65261167  1
  O  O135  1  0.14873100  0.85126900  0.61559000  1
  O  O136  1  0.37111833  0.18555917  0.69919267  1
  O  O137  1  0.81444083  0.18555917  0.69919267  1
  O  O138  1  0.66666667  0.33333333  0.73646300  1
  O  O139  1  0.33333333  0.66666667  0.70164033  1
  O  O140  1  0.29567433  0.14783717  0.82162767  1
  O  O141  1  0.18460183  0.36920367  0.73858167  1
  O  O142  1  0.63079633  0.81539817  0.73858167  1
  O  O143  1  0.48206350  0.96412700  0.78231700  1
  O  O144  1  0.81444083  0.62888167  0.69919267  1
  O  O145  1  0.48206350  0.51793650  0.78231700  1
  O  O146  1  0.14892100  0.85107900  0.86570800  1
  O  O147  1  0.33333333  0.66666667  0.81947467  1
  O  O148  1  0.18460183  0.81539817  0.73858167  1
  O  O149  1  0.85216283  0.14783717  0.82162767  1
  O  O150  1  0.00000000  0.00000000  0.78437233  1
  O  O151  1  0.85216283  0.70432567  0.82162767  1
  O  O152  1  0.51770617  0.03541233  0.90517533  1
  O  O153  1  0.03587300  0.51793650  0.78231700  1
  O  O154  1  0.14892100  0.29784200  0.86570800  1
  O  O155  1  0.70215800  0.85107900  0.86570800  1
  O  O156  1  0.00000000  0.00000000  0.90299600  1
  O  O157  1  0.66666667  0.33333333  0.86821667  1
  O  O158  1  0.33333333  0.66666667  0.95117967  1
  O  O159  1  0.51770617  0.48229383  0.90517533  1
  O  O160  1  0.18541767  0.81458233  0.98833433  1
  O  O161  1  0.96458767  0.48229383  0.90517533  1
  O  O162  1  0.62916467  0.81458233  0.98833433  1
  O  O163  1  0.18541767  0.37083533  0.98833433  1
  O  O164  1  0.81539767  0.63079533  0.94892333  1
  O  O165  1  0.36920467  0.18460233  0.94892333  1
  O  O166  1  0.66666667  0.33333333  0.98594500  1
  O  O167  1  0.81539767  0.18460233  0.94892333  1
