# generated using pymatgen
data_Li2MnSi4O11
_symmetry_space_group_name_H-M   'P 1'
_cell_length_a   10.53190550
_cell_length_b   10.53190550
_cell_length_c   7.79840200
_cell_angle_alpha   90.00000000
_cell_angle_beta   90.00000000
_cell_angle_gamma   90.00000000
_symmetry_Int_Tables_number   1
_chemical_formula_structural   Li2MnSi4O11
_chemical_formula_sum   'Li8 Mn4 Si16 O44'
_cell_volume   865.00680918
_cell_formula_units_Z   4
loop_
 _symmetry_equiv_pos_site_id
 _symmetry_equiv_pos_as_xyz
  1  'x, y, z'
loop_
 _atom_site_type_symbol
 _atom_site_label
 _atom_site_symmetry_multiplicity
 _atom_site_fract_x
 _atom_site_fract_y
 _atom_site_fract_z
 _atom_site_occupancy
  Li  Li0  1  0.88204750  0.84894650  0.50000000  1
  Li  Li1  1  0.34894650  0.61795250  0.00000000  1
  Li  Li2  1  0.65105350  0.38204750  0.00000000  1
  Li  Li3  1  0.11795250  0.15105350  0.50000000  1
  Li  Li4  1  0.38204750  0.34894650  0.00000000  1
  Li  Li5  1  0.84894650  0.11795250  0.50000000  1
  Li  Li6  1  0.15105350  0.88204750  0.50000000  1
  Li  Li7  1  0.61795250  0.65105350  0.00000000  1
  Mn  Mn8  1  0.00000000  0.00000000  0.75626400  1
  Mn  Mn9  1  0.00000000  0.00000000  0.24373600  1
  Mn  Mn10  1  0.50000000  0.50000000  0.25626400  1
  Mn  Mn11  1  0.50000000  0.50000000  0.74373600  1
  Si  Si12  1  0.01748950  0.69673050  0.80629350  1
  Si  Si13  1  0.01748950  0.69673050  0.19370650  1
  Si  Si14  1  0.80326950  0.51748950  0.30629350  1
  Si  Si15  1  0.80326950  0.51748950  0.69370650  1
  Si  Si16  1  0.19673050  0.48251050  0.69370650  1
  Si  Si17  1  0.19673050  0.48251050  0.30629350  1
  Si  Si18  1  0.98251050  0.30326950  0.19370650  1
  Si  Si19  1  0.98251050  0.30326950  0.80629350  1
  Si  Si20  1  0.51748950  0.19673050  0.30629350  1
  Si  Si21  1  0.51748950  0.19673050  0.69370650  1
  Si  Si22  1  0.30326950  0.01748950  0.80629350  1
  Si  Si23  1  0.30326950  0.01748950  0.19370650  1
  Si  Si24  1  0.69673050  0.98251050  0.19370650  1
  Si  Si25  1  0.69673050  0.98251050  0.80629350  1
  Si  Si26  1  0.48251050  0.80326950  0.69370650  1
  Si  Si27  1  0.48251050  0.80326950  0.30629350  1
  O  O28  1  0.00000000  0.00000000  0.00000000  1
  O  O29  1  0.00000000  0.00000000  0.50000000  1
  O  O30  1  0.06585450  0.82866450  0.72310650  1
  O  O31  1  0.06585450  0.82866450  0.27689350  1
  O  O32  1  0.96131700  0.71047900  0.00000000  1
  O  O33  1  0.90321050  0.63768750  0.68700650  1
  O  O34  1  0.90321050  0.63768750  0.31299350  1
  O  O35  1  0.13768750  0.59678950  0.81299350  1
  O  O36  1  0.13768750  0.59678950  0.18700650  1
  O  O37  1  0.67133550  0.56585450  0.22310650  1
  O  O38  1  0.67133550  0.56585450  0.77689350  1
  O  O39  1  0.21047900  0.53868300  0.50000000  1
  O  O40  1  0.78952100  0.46131700  0.50000000  1
  O  O41  1  0.32866450  0.43414550  0.77689350  1
  O  O42  1  0.32866450  0.43414550  0.22310650  1
  O  O43  1  0.86231250  0.40321050  0.81299350  1
  O  O44  1  0.86231250  0.40321050  0.18700650  1
  O  O45  1  0.09678950  0.36231250  0.68700650  1
  O  O46  1  0.09678950  0.36231250  0.31299350  1
  O  O47  1  0.03868300  0.28952100  0.00000000  1
  O  O48  1  0.93414550  0.17133550  0.72310650  1
  O  O49  1  0.93414550  0.17133550  0.27689350  1
  O  O50  1  0.50000000  0.50000000  0.50000000  1
  O  O51  1  0.50000000  0.50000000  0.00000000  1
  O  O52  1  0.56585450  0.32866450  0.22310650  1
  O  O53  1  0.56585450  0.32866450  0.77689350  1
  O  O54  1  0.46131700  0.21047900  0.50000000  1
  O  O55  1  0.40321050  0.13768750  0.18700650  1
  O  O56  1  0.40321050  0.13768750  0.81299350  1
  O  O57  1  0.63768750  0.09678950  0.31299350  1
  O  O58  1  0.63768750  0.09678950  0.68700650  1
  O  O59  1  0.17133550  0.06585450  0.72310650  1
  O  O60  1  0.17133550  0.06585450  0.27689350  1
  O  O61  1  0.71047900  0.03868300  0.00000000  1
  O  O62  1  0.28952100  0.96131700  0.00000000  1
  O  O63  1  0.82866450  0.93414550  0.27689350  1
  O  O64  1  0.82866450  0.93414550  0.72310650  1
  O  O65  1  0.36231250  0.90321050  0.31299350  1
  O  O66  1  0.36231250  0.90321050  0.68700650  1
  O  O67  1  0.59678950  0.86231250  0.18700650  1
  O  O68  1  0.59678950  0.86231250  0.81299350  1
  O  O69  1  0.53868300  0.78952100  0.50000000  1
  O  O70  1  0.43414550  0.67133550  0.22310650  1
  O  O71  1  0.43414550  0.67133550  0.77689350  1
