# generated using pymatgen
data_Li3Co11O14
_symmetry_space_group_name_H-M   'P 1'
_cell_length_a   5.12547600
_cell_length_b   20.92601400
_cell_length_c   5.13299769
_cell_angle_alpha   90.00000000
_cell_angle_beta   108.76902623
_cell_angle_gamma   90.00000000
_symmetry_Int_Tables_number   1
_chemical_formula_structural   Li3Co11O14
_chemical_formula_sum   'Li6 Co22 O28'
_cell_volume   521.26760785
_cell_formula_units_Z   2
loop_
 _symmetry_equiv_pos_site_id
 _symmetry_equiv_pos_as_xyz
  1  'x, y, z'
loop_
 _atom_site_type_symbol
 _atom_site_label
 _atom_site_symmetry_multiplicity
 _atom_site_fract_x
 _atom_site_fract_y
 _atom_site_fract_z
 _atom_site_occupancy
  Li  Li0  1  0.50000000  0.00000000  0.00000000  1
  Li  Li1  1  0.00000000  0.14150400  0.50000000  1
  Li  Li2  1  0.50000000  0.35849600  0.50000000  1
  Li  Li3  1  0.00000000  0.50000000  0.00000000  1
  Li  Li4  1  0.50000000  0.64150400  0.50000000  1
  Li  Li5  1  0.00000000  0.85849600  0.50000000  1
  Co  Co6  1  0.50000000  0.07140700  0.50000000  1
  Co  Co7  1  0.00000000  0.28534900  0.50000000  1
  Co  Co8  1  0.00000000  0.42859300  0.50000000  1
  Co  Co9  1  0.50000000  0.21465100  0.50000000  1
  Co  Co10  1  0.00000000  0.21389400  0.00000000  1
  Co  Co11  1  0.50000000  0.13929800  0.00000000  1
  Co  Co12  1  0.00000000  0.00000000  0.50000000  1
  Co  Co13  1  0.00000000  0.36070200  0.00000000  1
  Co  Co14  1  0.50000000  0.28610600  0.00000000  1
  Co  Co15  1  0.50000000  0.42917500  0.00000000  1
  Co  Co16  1  0.00000000  0.07082500  0.00000000  1
  Co  Co17  1  0.00000000  0.57140700  0.50000000  1
  Co  Co18  1  0.50000000  0.78534900  0.50000000  1
  Co  Co19  1  0.50000000  0.92859300  0.50000000  1
  Co  Co20  1  0.00000000  0.71465100  0.50000000  1
  Co  Co21  1  0.50000000  0.71389400  0.00000000  1
  Co  Co22  1  0.00000000  0.63929800  0.00000000  1
  Co  Co23  1  0.50000000  0.50000000  0.50000000  1
  Co  Co24  1  0.50000000  0.86070200  0.00000000  1
  Co  Co25  1  0.00000000  0.78610600  0.00000000  1
  Co  Co26  1  0.00000000  0.92917500  0.00000000  1
  Co  Co27  1  0.50000000  0.57082500  0.00000000  1
  O  O28  1  0.25532250  0.14174250  0.24883000  1
  O  O29  1  0.23242000  0.00000000  0.26919700  1
  O  O30  1  0.24397750  0.28517150  0.25194800  1
  O  O31  1  0.23710500  0.06739300  0.74166000  1
  O  O32  1  0.73710500  0.43260700  0.74166000  1
  O  O33  1  0.76289500  0.06739300  0.25834000  1
  O  O34  1  0.26289500  0.43260700  0.25834000  1
  O  O35  1  0.74467750  0.14174250  0.75117000  1
  O  O36  1  0.24467750  0.35825750  0.75117000  1
  O  O37  1  0.74397750  0.21482850  0.25194800  1
  O  O38  1  0.76758000  0.00000000  0.73080300  1
  O  O39  1  0.75532250  0.35825750  0.24883000  1
  O  O40  1  0.25602250  0.21482850  0.74805200  1
  O  O41  1  0.75602250  0.28517150  0.74805200  1
  O  O42  1  0.75532250  0.64174250  0.24883000  1
  O  O43  1  0.73242000  0.50000000  0.26919700  1
  O  O44  1  0.74397750  0.78517150  0.25194800  1
  O  O45  1  0.73710500  0.56739300  0.74166000  1
  O  O46  1  0.23710500  0.93260700  0.74166000  1
  O  O47  1  0.26289500  0.56739300  0.25834000  1
  O  O48  1  0.76289500  0.93260700  0.25834000  1
  O  O49  1  0.24467750  0.64174250  0.75117000  1
  O  O50  1  0.74467750  0.85825750  0.75117000  1
  O  O51  1  0.24397750  0.71482850  0.25194800  1
  O  O52  1  0.26758000  0.50000000  0.73080300  1
  O  O53  1  0.25532250  0.85825750  0.24883000  1
  O  O54  1  0.75602250  0.71482850  0.74805200  1
  O  O55  1  0.25602250  0.78517150  0.74805200  1
