# generated using pymatgen
data_ZnCrO4
_symmetry_space_group_name_H-M   'P 1'
_cell_length_a   5.59080000
_cell_length_b   8.45371200
_cell_length_c   6.39011900
_cell_angle_alpha   90.00000000
_cell_angle_beta   90.00000000
_cell_angle_gamma   90.00000000
_symmetry_Int_Tables_number   1
_chemical_formula_structural   ZnCrO4
_chemical_formula_sum   'Zn4 Cr4 O16'
_cell_volume   302.01627769
_cell_formula_units_Z   4
loop_
 _symmetry_equiv_pos_site_id
 _symmetry_equiv_pos_as_xyz
  1  'x, y, z'
loop_
 _atom_site_type_symbol
 _atom_site_label
 _atom_site_symmetry_multiplicity
 _atom_site_fract_x
 _atom_site_fract_y
 _atom_site_fract_z
 _atom_site_occupancy
  Zn  Zn0  1  0.00000000  0.00000000  0.00000000  1
  Zn  Zn1  1  0.00000000  0.00000000  0.50000000  1
  Zn  Zn2  1  0.50000000  0.50000000  0.00000000  1
  Zn  Zn3  1  0.50000000  0.50000000  0.50000000  1
  Cr  Cr4  1  0.50000000  0.85814900  0.25000000  1
  Cr  Cr5  1  0.50000000  0.14185100  0.75000000  1
  Cr  Cr6  1  0.00000000  0.35814900  0.25000000  1
  Cr  Cr7  1  0.00000000  0.64185100  0.75000000  1
  O  O8  1  0.24746750  0.02755350  0.75000000  1
  O  O9  1  0.24746750  0.97244650  0.25000000  1
  O  O10  1  0.50000000  0.25441900  0.54168200  1
  O  O11  1  0.50000000  0.74558100  0.04168200  1
  O  O12  1  0.50000000  0.25441900  0.95831800  1
  O  O13  1  0.50000000  0.74558100  0.45831800  1
  O  O14  1  0.75253250  0.97244650  0.25000000  1
  O  O15  1  0.75253250  0.02755350  0.75000000  1
  O  O16  1  0.74746750  0.52755350  0.75000000  1
  O  O17  1  0.74746750  0.47244650  0.25000000  1
  O  O18  1  0.00000000  0.75441900  0.54168200  1
  O  O19  1  0.00000000  0.24558100  0.04168200  1
  O  O20  1  0.00000000  0.75441900  0.95831800  1
  O  O21  1  0.00000000  0.24558100  0.45831800  1
  O  O22  1  0.25253250  0.47244650  0.25000000  1
  O  O23  1  0.25253250  0.52755350  0.75000000  1
