# generated using pymatgen
data_NaLi2FePCO7
_symmetry_space_group_name_H-M   'P 1'
_cell_length_a   5.10782876
_cell_length_b   6.61333997
_cell_length_c   8.66347590
_cell_angle_alpha   87.05596382
_cell_angle_beta   84.87740619
_cell_angle_gamma   89.22853478
_symmetry_Int_Tables_number   1
_chemical_formula_structural   NaLi2FePCO7
_chemical_formula_sum   'Na2 Li4 Fe2 P2 C2 O14'
_cell_volume   291.08538755
_cell_formula_units_Z   2
loop_
 _symmetry_equiv_pos_site_id
 _symmetry_equiv_pos_as_xyz
  1  'x, y, z'
loop_
 _atom_site_type_symbol
 _atom_site_label
 _atom_site_symmetry_multiplicity
 _atom_site_fract_x
 _atom_site_fract_y
 _atom_site_fract_z
 _atom_site_occupancy
  Na  Na0  1  0.73503500  0.50060000  0.73962500  1
  Na  Na1  1  0.26496500  0.49940000  0.26037500  1
  Li  Li2  1  0.22358300  0.79909900  0.91092300  1
  Li  Li3  1  0.77641700  0.20090100  0.08907700  1
  Li  Li4  1  0.73760750  0.96968900  0.71590550  1
  Li  Li5  1  0.26239250  0.03031100  0.28409450  1
  Fe  Fe6  1  0.21293350  0.23230800  0.66073550  1
  Fe  Fe7  1  0.78706650  0.76769200  0.33926450  1
  P  P8  1  0.27636800  0.75137650  0.58836400  1
  P  P9  1  0.72363200  0.24862350  0.41163600  1
  C  C10  1  0.31170150  0.22927000  0.95719250  1
  C  C11  1  0.68829850  0.77073000  0.04280750  1
  O  O12  1  0.61643750  0.76422200  0.90351850  1
  O  O13  1  0.38356250  0.23577800  0.09648150  1
  O  O14  1  0.06628700  0.23587000  0.92835600  1
  O  O15  1  0.93371300  0.76413000  0.07164400  1
  O  O16  1  0.49035550  0.21419650  0.84017950  1
  O  O17  1  0.50964450  0.78580350  0.15982050  1
  O  O18  1  0.15573150  0.91634800  0.69893950  1
  O  O19  1  0.84426850  0.08365200  0.30106050  1
  O  O20  1  0.20665750  0.54534300  0.67530150  1
  O  O21  1  0.79334250  0.45465700  0.32469850  1
  O  O22  1  0.58128900  0.77628600  0.56680800  1
  O  O23  1  0.41871100  0.22371400  0.43319200  1
  O  O24  1  0.83494600  0.22788700  0.57167000  1
  O  O25  1  0.16505400  0.77211300  0.42833000  1
