# generated using pymatgen
data_Cr4OF11
_symmetry_space_group_name_H-M   'P 1'
_cell_length_a   9.35719545
_cell_length_b   5.09894800
_cell_length_c   8.74449812
_cell_angle_alpha   90.00000000
_cell_angle_beta   107.44443363
_cell_angle_gamma   90.00000000
_symmetry_Int_Tables_number   1
_chemical_formula_structural   Cr4OF11
_chemical_formula_sum   'Cr8 O2 F22'
_cell_volume   398.02765602
_cell_formula_units_Z   2
loop_
 _symmetry_equiv_pos_site_id
 _symmetry_equiv_pos_as_xyz
  1  'x, y, z'
loop_
 _atom_site_type_symbol
 _atom_site_label
 _atom_site_symmetry_multiplicity
 _atom_site_fract_x
 _atom_site_fract_y
 _atom_site_fract_z
 _atom_site_occupancy
  Cr  Cr0  1  0.61828100  0.12313700  0.38206000  1
  Cr  Cr1  1  0.38171900  0.12313700  0.61794000  1
  Cr  Cr2  1  0.62636250  0.62623050  0.87382800  1
  Cr  Cr3  1  0.87363750  0.12623050  0.12617200  1
  Cr  Cr4  1  0.11828100  0.62313700  0.38206000  1
  Cr  Cr5  1  0.88171900  0.62313700  0.61794000  1
  Cr  Cr6  1  0.12636250  0.12623050  0.87382800  1
  Cr  Cr7  1  0.37363750  0.62623050  0.12617200  1
  O  O8  1  0.50000000  0.00106700  0.50000000  1
  O  O9  1  0.00000000  0.50106700  0.50000000  1
  F  F10  1  0.49972900  0.93624900  0.80873600  1
  F  F11  1  0.50027100  0.93624900  0.19126400  1
  F  F12  1  0.74754950  0.24257750  0.25324500  1
  F  F13  1  0.75038450  0.31493050  0.93939700  1
  F  F14  1  0.74961550  0.31736450  0.56013100  1
  F  F15  1  0.50020000  0.43737700  0.68782800  1
  F  F16  1  0.49980000  0.43737700  0.31217200  1
  F  F17  1  0.50000000  0.50319400  0.00000000  1
  F  F18  1  0.75245050  0.74257750  0.74675500  1
  F  F19  1  0.75038450  0.81736450  0.43986900  1
  F  F20  1  0.74961550  0.81493050  0.06060300  1
  F  F21  1  0.99972900  0.43624900  0.80873600  1
  F  F22  1  0.00027100  0.43624900  0.19126400  1
  F  F23  1  0.24754950  0.74257750  0.25324500  1
  F  F24  1  0.25038450  0.81493050  0.93939700  1
  F  F25  1  0.24961550  0.81736450  0.56013100  1
  F  F26  1  0.00020000  0.93737700  0.68782800  1
  F  F27  1  0.99980000  0.93737700  0.31217200  1
  F  F28  1  0.00000000  0.00319400  0.00000000  1
  F  F29  1  0.25245050  0.24257750  0.74675500  1
  F  F30  1  0.25038450  0.31736450  0.43986900  1
  F  F31  1  0.24961550  0.31493050  0.06060300  1
