# generated using pymatgen
data_LiVPO5
_symmetry_space_group_name_H-M   'P 1'
_cell_length_a   6.21693700
_cell_length_b   4.88363200
_cell_length_c   8.67342355
_cell_angle_alpha   90.00000000
_cell_angle_beta   132.60784416
_cell_angle_gamma   90.00000000
_symmetry_Int_Tables_number   1
_chemical_formula_structural   LiVPO5
_chemical_formula_sum   'Li2 V2 P2 O10'
_cell_volume   193.81633180
_cell_formula_units_Z   2
loop_
 _symmetry_equiv_pos_site_id
 _symmetry_equiv_pos_as_xyz
  1  'x, y, z'
loop_
 _atom_site_type_symbol
 _atom_site_label
 _atom_site_symmetry_multiplicity
 _atom_site_fract_x
 _atom_site_fract_y
 _atom_site_fract_z
 _atom_site_occupancy
  Li  Li0  1  0.05128400  0.08248200  0.97501400  1
  Li  Li1  1  0.05128400  0.91751800  0.47501400  1
  V  V2  1  0.49715500  0.75500900  0.25077200  1
  V  V3  1  0.49715500  0.24499100  0.75077200  1
  P  P4  1  0.00220200  0.52399600  0.75029600  1
  P  P5  1  0.00220200  0.47600400  0.25029600  1
  O  O6  1  0.77820000  0.32792300  0.71724600  1
  O  O7  1  0.14212100  0.71028100  0.94248500  1
  O  O8  1  0.48446000  0.09341300  0.24133800  1
  O  O9  1  0.85579200  0.70503300  0.55588300  1
  O  O10  1  0.24447400  0.34197000  0.80006900  1
  O  O11  1  0.77820000  0.67207700  0.21724600  1
  O  O12  1  0.14212100  0.28971900  0.44248500  1
  O  O13  1  0.48446000  0.90658700  0.74133800  1
  O  O14  1  0.85579200  0.29496700  0.05588300  1
  O  O15  1  0.24447400  0.65803000  0.30006900  1
