# generated using pymatgen
data_LiMnOF2
_symmetry_space_group_name_H-M   'P 1'
_cell_length_a   4.98778500
_cell_length_b   5.23149200
_cell_length_c   8.52261400
_cell_angle_alpha   90.00000000
_cell_angle_beta   90.00000000
_cell_angle_gamma   90.00000000
_symmetry_Int_Tables_number   1
_chemical_formula_structural   LiMnOF2
_chemical_formula_sum   'Li4 Mn4 O4 F8'
_cell_volume   222.38531697
_cell_formula_units_Z   4
loop_
 _symmetry_equiv_pos_site_id
 _symmetry_equiv_pos_as_xyz
  1  'x, y, z'
loop_
 _atom_site_type_symbol
 _atom_site_label
 _atom_site_symmetry_multiplicity
 _atom_site_fract_x
 _atom_site_fract_y
 _atom_site_fract_z
 _atom_site_occupancy
  Li  Li0  1  0.50000000  0.00000000  0.78566000  1
  Li  Li1  1  0.50000000  0.50000000  0.17656100  1
  Li  Li2  1  0.00000000  0.50000000  0.28566000  1
  Li  Li3  1  0.00000000  0.00000000  0.67656100  1
  Mn  Mn4  1  0.50000000  0.00000000  0.42728400  1
  Mn  Mn5  1  0.50000000  0.50000000  0.59395800  1
  Mn  Mn6  1  0.00000000  0.50000000  0.92728400  1
  Mn  Mn7  1  0.00000000  0.00000000  0.09395800  1
  O  O8  1  0.31831400  0.18205500  0.58765900  1
  O  O9  1  0.18168600  0.68205500  0.08765900  1
  O  O10  1  0.81831400  0.31794500  0.08765900  1
  O  O11  1  0.68168600  0.81794500  0.58765900  1
  F  F12  1  0.27021900  0.65236800  0.41524800  1
  F  F13  1  0.27124400  0.16475600  0.25536700  1
  F  F14  1  0.22875600  0.66475600  0.75536700  1
  F  F15  1  0.22978100  0.15236800  0.91524800  1
  F  F16  1  0.77021900  0.84763200  0.91524800  1
  F  F17  1  0.77124400  0.33524400  0.75536700  1
  F  F18  1  0.72875600  0.83524400  0.25536700  1
  F  F19  1  0.72978100  0.34763200  0.41524800  1
