# generated using pymatgen
data_V3Ni(PO4)6
_symmetry_space_group_name_H-M   'P 1'
_cell_length_a   8.55928429
_cell_length_b   8.55928429
_cell_length_c   21.69984796
_cell_angle_alpha   90.00000000
_cell_angle_beta   90.00000000
_cell_angle_gamma   120.00000000
_symmetry_Int_Tables_number   1
_chemical_formula_structural   V3Ni(PO4)6
_chemical_formula_sum   'V9 Ni3 P18 O72'
_cell_volume   1376.77263589
_cell_formula_units_Z   3
loop_
 _symmetry_equiv_pos_site_id
 _symmetry_equiv_pos_as_xyz
  1  'x, y, z'
loop_
 _atom_site_type_symbol
 _atom_site_label
 _atom_site_symmetry_multiplicity
 _atom_site_fract_x
 _atom_site_fract_y
 _atom_site_fract_z
 _atom_site_occupancy
  V  V0  1  0.00000000  0.00000000  0.13940100  1
  V  V1  1  0.33333333  0.66666667  0.02561667  1
  V  V2  1  0.33333333  0.66666667  0.30582567  1
  V  V3  1  0.66666667  0.33333333  0.47273433  1
  V  V4  1  0.00000000  0.00000000  0.35895000  1
  V  V5  1  0.00000000  0.00000000  0.63915900  1
  V  V6  1  0.33333333  0.66666667  0.80606767  1
  V  V7  1  0.66666667  0.33333333  0.69228333  1
  V  V8  1  0.66666667  0.33333333  0.97249233  1
  Ni  Ni9  1  0.66666667  0.33333333  0.19152733  1
  Ni  Ni10  1  0.33333333  0.66666667  0.52486067  1
  Ni  Ni11  1  0.00000000  0.00000000  0.85819400  1
  P  P12  1  0.66604767  0.61460333  0.08361733  1
  P  P13  1  0.94855567  0.33395233  0.08361733  1
  P  P14  1  0.38539667  0.05144433  0.08361733  1
  P  P15  1  0.28251800  0.28208200  0.24965900  1
  P  P16  1  0.71791800  0.00043600  0.24965900  1
  P  P17  1  0.99956400  0.71748200  0.24965900  1
  P  P18  1  0.33271433  0.94793667  0.41695067  1
  P  P19  1  0.61522233  0.66728567  0.41695067  1
  P  P20  1  0.05206333  0.38477767  0.41695067  1
  P  P21  1  0.94918467  0.61541533  0.58299233  1
  P  P22  1  0.38458467  0.33376933  0.58299233  1
  P  P23  1  0.66623067  0.05081533  0.58299233  1
  P  P24  1  0.99938100  0.28127000  0.75028400  1
  P  P25  1  0.28188900  0.00061900  0.75028400  1
  P  P26  1  0.71873000  0.71811100  0.75028400  1
  P  P27  1  0.61585133  0.94874867  0.91632567  1
  P  P28  1  0.05125133  0.66710267  0.91632567  1
  P  P29  1  0.33289733  0.38414867  0.91632567  1
  O  O30  1  0.98400400  0.81443700  0.30765700  1
  O  O31  1  0.18556300  0.16956700  0.30765700  1
  O  O32  1  0.83833400  0.80564700  0.09096300  1
  O  O33  1  0.83043300  0.01599600  0.30765700  1
  O  O34  1  0.50514867  0.64902433  0.07255933  1
  O  O35  1  0.62070133  0.50323367  0.14124367  1
  O  O36  1  0.96731300  0.16166600  0.09096300  1
  O  O37  1  0.14387567  0.49485133  0.07255933  1
  O  O38  1  0.35097567  0.85612433  0.07255933  1
  O  O39  1  0.16417367  0.19634133  0.19162633  1
  O  O40  1  0.46487300  0.29741000  0.24773300  1
  O  O41  1  0.80365867  0.96783233  0.19162633  1
  O  O42  1  0.88253233  0.37929867  0.14124367  1
  O  O43  1  0.19435300  0.03268700  0.09096300  1
  O  O44  1  0.49676633  0.11746767  0.14124367  1
  O  O45  1  0.29861700  0.47236300  0.25752000  1
  O  O46  1  0.52763700  0.82625400  0.25752000  1
  O  O47  1  0.70259000  0.16746300  0.24773300  1
  O  O48  1  0.03216767  0.83582633  0.19162633  1
  O  O49  1  0.17374600  0.70138300  0.25752000  1
  O  O50  1  0.83107033  0.30126067  0.02552067  1
  O  O51  1  0.83253700  0.53512700  0.24773300  1
  O  O52  1  0.47019033  0.16892967  0.02552067  1
  O  O53  1  0.69873933  0.52980967  0.02552067  1
  O  O54  1  0.65067067  0.14777033  0.64099033  1
  O  O55  1  0.85222967  0.50290033  0.64099033  1
  O  O56  1  0.50500067  0.13898033  0.42429633  1
  O  O57  1  0.49709967  0.34932933  0.64099033  1
  O  O58  1  0.17181533  0.98235767  0.40589267  1
  O  O59  1  0.28736800  0.83656700  0.47457700  1
  O  O60  1  0.63397967  0.49499933  0.42429633  1
  O  O61  1  0.81054233  0.82818467  0.40589267  1
  O  O62  1  0.01764233  0.18945767  0.40589267  1
  O  O63  1  0.83084033  0.52967467  0.52495967  1
  O  O64  1  0.13153967  0.63074333  0.58106633  1
  O  O65  1  0.47032533  0.30116567  0.52495967  1
  O  O66  1  0.54919900  0.71263200  0.47457700  1
  O  O67  1  0.86101967  0.36602033  0.42429633  1
  O  O68  1  0.16343300  0.45080100  0.47457700  1
  O  O69  1  0.96528367  0.80569633  0.59085333  1
  O  O70  1  0.19430367  0.15958733  0.59085333  1
  O  O71  1  0.36925667  0.50079633  0.58106633  1
  O  O72  1  0.69883433  0.16915967  0.52495967  1
  O  O73  1  0.84041267  0.03471633  0.59085333  1
  O  O74  1  0.49773700  0.63459400  0.35885400  1
  O  O75  1  0.49920367  0.86846033  0.58106633  1
  O  O76  1  0.13685700  0.50226300  0.35885400  1
  O  O77  1  0.36540600  0.86314300  0.35885400  1
  O  O78  1  0.31733733  0.48110367  0.97432367  1
  O  O79  1  0.51889633  0.83623367  0.97432367  1
  O  O80  1  0.17166733  0.47231367  0.75762967  1
  O  O81  1  0.16376633  0.68266267  0.97432367  1
  O  O82  1  0.83848200  0.31569100  0.73922600  1
  O  O83  1  0.95403467  0.16990033  0.80791033  1
  O  O84  1  0.30064633  0.82833267  0.75762967  1
  O  O85  1  0.47720900  0.16151800  0.73922600  1
  O  O86  1  0.68430900  0.52279100  0.73922600  1
  O  O87  1  0.49750700  0.86300800  0.85829300  1
  O  O88  1  0.79820633  0.96407667  0.91439967  1
  O  O89  1  0.13699200  0.63449900  0.85829300  1
  O  O90  1  0.21586567  0.04596533  0.80791033  1
  O  O91  1  0.52768633  0.69935367  0.75762967  1
  O  O92  1  0.83009967  0.78413433  0.80791033  1
  O  O93  1  0.63195033  0.13902967  0.92418667  1
  O  O94  1  0.86097033  0.49292067  0.92418667  1
  O  O95  1  0.03592333  0.83412967  0.91439967  1
  O  O96  1  0.36550100  0.50249300  0.85829300  1
  O  O97  1  0.50707933  0.36804967  0.92418667  1
  O  O98  1  0.16440367  0.96792733  0.69218733  1
  O  O99  1  0.16587033  0.20179367  0.91439967  1
  O  O100  1  0.80352367  0.83559633  0.69218733  1
  O  O101  1  0.03207267  0.19647633  0.69218733  1
