# generated using pymatgen
data_Rb19O3
_symmetry_space_group_name_H-M   'P 1'
_cell_length_a   23.13417200
_cell_length_b   23.13417200
_cell_length_c   23.13417200
_cell_angle_alpha   90.00000000
_cell_angle_beta   90.00000000
_cell_angle_gamma   90.00000000
_symmetry_Int_Tables_number   1
_chemical_formula_structural   Rb19O3
_chemical_formula_sum   'Rb152 O24'
_cell_volume   12381.17552605
_cell_formula_units_Z   8
loop_
 _symmetry_equiv_pos_site_id
 _symmetry_equiv_pos_as_xyz
  1  'x, y, z'
loop_
 _atom_site_type_symbol
 _atom_site_label
 _atom_site_symmetry_multiplicity
 _atom_site_fract_x
 _atom_site_fract_y
 _atom_site_fract_z
 _atom_site_occupancy
  Rb  Rb0  1  0.50000000  0.00000000  0.50000000  1
  Rb  Rb1  1  0.11361600  0.25000000  0.25000000  1
  Rb  Rb2  1  0.68916900  0.00000000  0.36186900  1
  Rb  Rb3  1  0.18916900  0.00000000  0.13813100  1
  Rb  Rb4  1  0.25000000  0.11361600  0.25000000  1
  Rb  Rb5  1  0.25000000  0.25000000  0.11361600  1
  Rb  Rb6  1  0.25000000  0.38638400  0.25000000  1
  Rb  Rb7  1  0.25000000  0.25000000  0.38638400  1
  Rb  Rb8  1  0.81083100  0.86186900  0.50000000  1
  Rb  Rb9  1  0.81083100  0.13813100  0.50000000  1
  Rb  Rb10  1  0.38638400  0.25000000  0.25000000  1
  Rb  Rb11  1  0.36186900  0.18916900  0.50000000  1
  Rb  Rb12  1  0.86186900  0.00000000  0.31083100  1
  Rb  Rb13  1  0.36186900  0.00000000  0.18916900  1
  Rb  Rb14  1  0.36186900  0.81083100  0.50000000  1
  Rb  Rb15  1  0.00000000  0.31083100  0.13813100  1
  Rb  Rb16  1  0.50000000  0.31083100  0.36186900  1
  Rb  Rb17  1  0.00000000  0.86186900  0.18916900  1
  Rb  Rb18  1  0.00000000  0.00000000  0.50000000  1
  Rb  Rb19  1  0.00000000  0.13813100  0.18916900  1
  Rb  Rb20  1  0.50000000  0.86186900  0.31083100  1
  Rb  Rb21  1  0.50000000  0.13813100  0.31083100  1
  Rb  Rb22  1  0.50000000  0.68916900  0.36186900  1
  Rb  Rb23  1  0.00000000  0.68916900  0.13813100  1
  Rb  Rb24  1  0.63813100  0.18916900  0.50000000  1
  Rb  Rb25  1  0.13813100  0.00000000  0.31083100  1
  Rb  Rb26  1  0.63813100  0.00000000  0.18916900  1
  Rb  Rb27  1  0.63813100  0.81083100  0.50000000  1
  Rb  Rb28  1  0.11361600  0.75000000  0.25000000  1
  Rb  Rb29  1  0.18916900  0.86186900  0.50000000  1
  Rb  Rb30  1  0.18916900  0.13813100  0.50000000  1
  Rb  Rb31  1  0.25000000  0.61361600  0.25000000  1
  Rb  Rb32  1  0.25000000  0.75000000  0.11361600  1
  Rb  Rb33  1  0.25000000  0.75000000  0.38638400  1
  Rb  Rb34  1  0.25000000  0.88638400  0.25000000  1
  Rb  Rb35  1  0.81083100  0.00000000  0.13813100  1
  Rb  Rb36  1  0.31083100  0.00000000  0.36186900  1
  Rb  Rb37  1  0.38638400  0.75000000  0.25000000  1
  Rb  Rb38  1  0.50000000  0.50000000  0.00000000  1
  Rb  Rb39  1  0.11361600  0.75000000  0.75000000  1
  Rb  Rb40  1  0.68916900  0.50000000  0.86186900  1
  Rb  Rb41  1  0.18916900  0.50000000  0.63813100  1
  Rb  Rb42  1  0.25000000  0.61361600  0.75000000  1
  Rb  Rb43  1  0.25000000  0.75000000  0.61361600  1
  Rb  Rb44  1  0.25000000  0.88638400  0.75000000  1
  Rb  Rb45  1  0.25000000  0.75000000  0.88638400  1
  Rb  Rb46  1  0.81083100  0.36186900  0.00000000  1
  Rb  Rb47  1  0.81083100  0.63813100  0.00000000  1
  Rb  Rb48  1  0.38638400  0.75000000  0.75000000  1
  Rb  Rb49  1  0.36186900  0.68916900  0.00000000  1
  Rb  Rb50  1  0.86186900  0.50000000  0.81083100  1
  Rb  Rb51  1  0.36186900  0.50000000  0.68916900  1
  Rb  Rb52  1  0.36186900  0.31083100  0.00000000  1
  Rb  Rb53  1  0.00000000  0.81083100  0.63813100  1
  Rb  Rb54  1  0.50000000  0.81083100  0.86186900  1
  Rb  Rb55  1  0.00000000  0.36186900  0.68916900  1
  Rb  Rb56  1  0.00000000  0.50000000  0.00000000  1
  Rb  Rb57  1  0.00000000  0.63813100  0.68916900  1
  Rb  Rb58  1  0.50000000  0.36186900  0.81083100  1
  Rb  Rb59  1  0.50000000  0.63813100  0.81083100  1
  Rb  Rb60  1  0.50000000  0.18916900  0.86186900  1
  Rb  Rb61  1  0.00000000  0.18916900  0.63813100  1
  Rb  Rb62  1  0.63813100  0.68916900  0.00000000  1
  Rb  Rb63  1  0.13813100  0.50000000  0.81083100  1
  Rb  Rb64  1  0.63813100  0.50000000  0.68916900  1
  Rb  Rb65  1  0.63813100  0.31083100  0.00000000  1
  Rb  Rb66  1  0.11361600  0.25000000  0.75000000  1
  Rb  Rb67  1  0.18916900  0.36186900  0.00000000  1
  Rb  Rb68  1  0.18916900  0.63813100  0.00000000  1
  Rb  Rb69  1  0.25000000  0.11361600  0.75000000  1
  Rb  Rb70  1  0.25000000  0.25000000  0.61361600  1
  Rb  Rb71  1  0.25000000  0.25000000  0.88638400  1
  Rb  Rb72  1  0.25000000  0.38638400  0.75000000  1
  Rb  Rb73  1  0.81083100  0.50000000  0.63813100  1
  Rb  Rb74  1  0.31083100  0.50000000  0.86186900  1
  Rb  Rb75  1  0.38638400  0.25000000  0.75000000  1
  Rb  Rb76  1  0.00000000  0.00000000  0.00000000  1
  Rb  Rb77  1  0.61361600  0.25000000  0.75000000  1
  Rb  Rb78  1  0.18916900  0.00000000  0.86186900  1
  Rb  Rb79  1  0.68916900  0.00000000  0.63813100  1
  Rb  Rb80  1  0.75000000  0.11361600  0.75000000  1
  Rb  Rb81  1  0.75000000  0.25000000  0.61361600  1
  Rb  Rb82  1  0.75000000  0.38638400  0.75000000  1
  Rb  Rb83  1  0.75000000  0.25000000  0.88638400  1
  Rb  Rb84  1  0.31083100  0.86186900  0.00000000  1
  Rb  Rb85  1  0.31083100  0.13813100  0.00000000  1
  Rb  Rb86  1  0.88638400  0.25000000  0.75000000  1
  Rb  Rb87  1  0.86186900  0.18916900  0.00000000  1
  Rb  Rb88  1  0.36186900  0.00000000  0.81083100  1
  Rb  Rb89  1  0.86186900  0.00000000  0.68916900  1
  Rb  Rb90  1  0.86186900  0.81083100  0.00000000  1
  Rb  Rb91  1  0.50000000  0.31083100  0.63813100  1
  Rb  Rb92  1  0.00000000  0.31083100  0.86186900  1
  Rb  Rb93  1  0.50000000  0.86186900  0.68916900  1
  Rb  Rb94  1  0.50000000  0.00000000  0.00000000  1
  Rb  Rb95  1  0.50000000  0.13813100  0.68916900  1
  Rb  Rb96  1  0.00000000  0.86186900  0.81083100  1
  Rb  Rb97  1  0.00000000  0.13813100  0.81083100  1
  Rb  Rb98  1  0.00000000  0.68916900  0.86186900  1
  Rb  Rb99  1  0.50000000  0.68916900  0.63813100  1
  Rb  Rb100  1  0.13813100  0.18916900  0.00000000  1
  Rb  Rb101  1  0.63813100  0.00000000  0.81083100  1
  Rb  Rb102  1  0.13813100  0.00000000  0.68916900  1
  Rb  Rb103  1  0.13813100  0.81083100  0.00000000  1
  Rb  Rb104  1  0.61361600  0.75000000  0.75000000  1
  Rb  Rb105  1  0.68916900  0.86186900  0.00000000  1
  Rb  Rb106  1  0.68916900  0.13813100  0.00000000  1
  Rb  Rb107  1  0.75000000  0.61361600  0.75000000  1
  Rb  Rb108  1  0.75000000  0.75000000  0.61361600  1
  Rb  Rb109  1  0.75000000  0.75000000  0.88638400  1
  Rb  Rb110  1  0.75000000  0.88638400  0.75000000  1
  Rb  Rb111  1  0.31083100  0.00000000  0.63813100  1
  Rb  Rb112  1  0.81083100  0.00000000  0.86186900  1
  Rb  Rb113  1  0.88638400  0.75000000  0.75000000  1
  Rb  Rb114  1  0.00000000  0.50000000  0.50000000  1
  Rb  Rb115  1  0.61361600  0.75000000  0.25000000  1
  Rb  Rb116  1  0.18916900  0.50000000  0.36186900  1
  Rb  Rb117  1  0.68916900  0.50000000  0.13813100  1
  Rb  Rb118  1  0.75000000  0.61361600  0.25000000  1
  Rb  Rb119  1  0.75000000  0.75000000  0.11361600  1
  Rb  Rb120  1  0.75000000  0.88638400  0.25000000  1
  Rb  Rb121  1  0.75000000  0.75000000  0.38638400  1
  Rb  Rb122  1  0.31083100  0.36186900  0.50000000  1
  Rb  Rb123  1  0.31083100  0.63813100  0.50000000  1
  Rb  Rb124  1  0.88638400  0.75000000  0.25000000  1
  Rb  Rb125  1  0.86186900  0.68916900  0.50000000  1
  Rb  Rb126  1  0.36186900  0.50000000  0.31083100  1
  Rb  Rb127  1  0.86186900  0.50000000  0.18916900  1
  Rb  Rb128  1  0.86186900  0.31083100  0.50000000  1
  Rb  Rb129  1  0.50000000  0.81083100  0.13813100  1
  Rb  Rb130  1  0.00000000  0.81083100  0.36186900  1
  Rb  Rb131  1  0.50000000  0.36186900  0.18916900  1
  Rb  Rb132  1  0.50000000  0.50000000  0.50000000  1
  Rb  Rb133  1  0.50000000  0.63813100  0.18916900  1
  Rb  Rb134  1  0.00000000  0.36186900  0.31083100  1
  Rb  Rb135  1  0.00000000  0.63813100  0.31083100  1
  Rb  Rb136  1  0.00000000  0.18916900  0.36186900  1
  Rb  Rb137  1  0.50000000  0.18916900  0.13813100  1
  Rb  Rb138  1  0.13813100  0.68916900  0.50000000  1
  Rb  Rb139  1  0.63813100  0.50000000  0.31083100  1
  Rb  Rb140  1  0.13813100  0.50000000  0.18916900  1
  Rb  Rb141  1  0.13813100  0.31083100  0.50000000  1
  Rb  Rb142  1  0.61361600  0.25000000  0.25000000  1
  Rb  Rb143  1  0.68916900  0.36186900  0.50000000  1
  Rb  Rb144  1  0.68916900  0.63813100  0.50000000  1
  Rb  Rb145  1  0.75000000  0.11361600  0.25000000  1
  Rb  Rb146  1  0.75000000  0.25000000  0.11361600  1
  Rb  Rb147  1  0.75000000  0.25000000  0.38638400  1
  Rb  Rb148  1  0.75000000  0.38638400  0.25000000  1
  Rb  Rb149  1  0.31083100  0.50000000  0.13813100  1
  Rb  Rb150  1  0.81083100  0.50000000  0.36186900  1
  Rb  Rb151  1  0.88638400  0.25000000  0.25000000  1
  O  O152  1  0.00000000  0.25000000  0.25000000  1
  O  O153  1  0.25000000  0.00000000  0.25000000  1
  O  O154  1  0.25000000  0.75000000  0.50000000  1
  O  O155  1  0.25000000  0.25000000  0.50000000  1
  O  O156  1  0.75000000  0.00000000  0.25000000  1
  O  O157  1  0.00000000  0.75000000  0.25000000  1
  O  O158  1  0.00000000  0.75000000  0.75000000  1
  O  O159  1  0.25000000  0.50000000  0.75000000  1
  O  O160  1  0.25000000  0.25000000  0.00000000  1
  O  O161  1  0.25000000  0.75000000  0.00000000  1
  O  O162  1  0.75000000  0.50000000  0.75000000  1
  O  O163  1  0.00000000  0.25000000  0.75000000  1
  O  O164  1  0.50000000  0.25000000  0.75000000  1
  O  O165  1  0.75000000  0.00000000  0.75000000  1
  O  O166  1  0.75000000  0.75000000  0.00000000  1
  O  O167  1  0.75000000  0.25000000  0.00000000  1
  O  O168  1  0.25000000  0.00000000  0.75000000  1
  O  O169  1  0.50000000  0.75000000  0.75000000  1
  O  O170  1  0.50000000  0.75000000  0.25000000  1
  O  O171  1  0.75000000  0.50000000  0.25000000  1
  O  O172  1  0.75000000  0.25000000  0.50000000  1
  O  O173  1  0.75000000  0.75000000  0.50000000  1
  O  O174  1  0.25000000  0.50000000  0.25000000  1
  O  O175  1  0.50000000  0.25000000  0.25000000  1
