# generated using pymatgen
data_CaBi2O5
_symmetry_space_group_name_H-M   'P 1'
_cell_length_a   12.98932600
_cell_length_b   11.59678800
_cell_length_c   11.34971864
_cell_angle_alpha   90.00000000
_cell_angle_beta   90.05713062
_cell_angle_gamma   90.00000000
_symmetry_Int_Tables_number   1
_chemical_formula_structural   CaBi2O5
_chemical_formula_sum   'Ca12 Bi24 O60'
_cell_volume   1709.65788760
_cell_formula_units_Z   12
loop_
 _symmetry_equiv_pos_site_id
 _symmetry_equiv_pos_as_xyz
  1  'x, y, z'
loop_
 _atom_site_type_symbol
 _atom_site_label
 _atom_site_symmetry_multiplicity
 _atom_site_fract_x
 _atom_site_fract_y
 _atom_site_fract_z
 _atom_site_occupancy
  Ca  Ca0  1  0.83433700  0.13821800  0.42868500  1
  Ca  Ca1  1  0.83433700  0.86178200  0.92868500  1
  Ca  Ca2  1  0.50000000  0.17644400  0.75000000  1
  Ca  Ca3  1  0.50000000  0.82355600  0.25000000  1
  Ca  Ca4  1  0.16566300  0.13821800  0.07131500  1
  Ca  Ca5  1  0.16566300  0.86178200  0.57131500  1
  Ca  Ca6  1  0.33433700  0.63821800  0.42868500  1
  Ca  Ca7  1  0.33433700  0.36178200  0.92868500  1
  Ca  Ca8  1  0.00000000  0.67644400  0.75000000  1
  Ca  Ca9  1  0.00000000  0.32355600  0.25000000  1
  Ca  Ca10  1  0.66566300  0.63821800  0.07131500  1
  Ca  Ca11  1  0.66566300  0.36178200  0.57131500  1
  Bi  Bi12  1  0.83805550  0.13660150  0.06814700  1
  Bi  Bi13  1  0.66775100  0.31833200  0.25202800  1
  Bi  Bi14  1  0.83805550  0.86339850  0.56814700  1
  Bi  Bi15  1  0.50290750  0.14167850  0.44292400  1
  Bi  Bi16  1  0.49709250  0.14167850  0.05707600  1
  Bi  Bi17  1  0.33224900  0.31833200  0.24797200  1
  Bi  Bi18  1  0.66775100  0.68166800  0.75202800  1
  Bi  Bi19  1  0.50290750  0.85832150  0.94292400  1
  Bi  Bi20  1  0.49709250  0.85832150  0.55707600  1
  Bi  Bi21  1  0.16194450  0.13660150  0.43185300  1
  Bi  Bi22  1  0.33224900  0.68166800  0.74797200  1
  Bi  Bi23  1  0.16194450  0.86339850  0.93185300  1
  Bi  Bi24  1  0.33805550  0.63660150  0.06814700  1
  Bi  Bi25  1  0.16775100  0.81833200  0.25202800  1
  Bi  Bi26  1  0.33805550  0.36339850  0.56814700  1
  Bi  Bi27  1  0.00290750  0.64167850  0.44292400  1
  Bi  Bi28  1  0.99709250  0.64167850  0.05707600  1
  Bi  Bi29  1  0.83224900  0.81833200  0.24797200  1
  Bi  Bi30  1  0.16775100  0.18166800  0.75202800  1
  Bi  Bi31  1  0.00290750  0.35832150  0.94292400  1
  Bi  Bi32  1  0.99709250  0.35832150  0.55707600  1
  Bi  Bi33  1  0.66194450  0.63660150  0.43185300  1
  Bi  Bi34  1  0.83224900  0.18166800  0.74797200  1
  Bi  Bi35  1  0.66194450  0.36339850  0.93185300  1
  O  O36  1  0.66185500  0.20296200  0.08788600  1
  O  O37  1  0.66266750  0.20248250  0.40890500  1
  O  O38  1  0.84025400  0.05681900  0.88416900  1
  O  O39  1  0.67694600  0.24470300  0.75206100  1
  O  O40  1  0.84025400  0.94318100  0.38416900  1
  O  O41  1  0.49846700  0.29228600  0.57372900  1
  O  O42  1  0.83328200  0.05090000  0.61871700  1
  O  O43  1  0.50000000  0.25406400  0.25000000  1
  O  O44  1  0.50153300  0.29228600  0.92627100  1
  O  O45  1  0.83328200  0.94910000  0.11871700  1
  O  O46  1  0.32305400  0.24470300  0.74793900  1
  O  O47  1  0.50760500  0.04133800  0.60635800  1
  O  O48  1  0.33814500  0.20296200  0.41211400  1
  O  O49  1  0.66266750  0.79751750  0.90890500  1
  O  O50  1  0.49239500  0.04133800  0.89364200  1
  O  O51  1  0.50760500  0.95866200  0.10635800  1
  O  O52  1  0.33733250  0.20248250  0.09109500  1
  O  O53  1  0.66185500  0.79703800  0.58788600  1
  O  O54  1  0.49239500  0.95866200  0.39364200  1
  O  O55  1  0.67694600  0.75529700  0.25206100  1
  O  O56  1  0.16671800  0.05090000  0.88128300  1
  O  O57  1  0.49846700  0.70771400  0.07372900  1
  O  O58  1  0.50000000  0.74593600  0.75000000  1
  O  O59  1  0.16671800  0.94910000  0.38128300  1
  O  O60  1  0.50153300  0.70771400  0.42627100  1
  O  O61  1  0.15974600  0.05681900  0.61583100  1
  O  O62  1  0.32305400  0.75529700  0.24793900  1
  O  O63  1  0.15974600  0.94318100  0.11583100  1
  O  O64  1  0.33733250  0.79751750  0.59109500  1
  O  O65  1  0.33814500  0.79703800  0.91211400  1
  O  O66  1  0.16185500  0.70296200  0.08788600  1
  O  O67  1  0.16266750  0.70248250  0.40890500  1
  O  O68  1  0.34025400  0.55681900  0.88416900  1
  O  O69  1  0.17694600  0.74470300  0.75206100  1
  O  O70  1  0.34025400  0.44318100  0.38416900  1
  O  O71  1  0.99846700  0.79228600  0.57372900  1
  O  O72  1  0.33328200  0.55090000  0.61871700  1
  O  O73  1  0.00000000  0.75406400  0.25000000  1
  O  O74  1  0.00153300  0.79228600  0.92627100  1
  O  O75  1  0.33328200  0.44910000  0.11871700  1
  O  O76  1  0.82305400  0.74470300  0.74793900  1
  O  O77  1  0.00760500  0.54133800  0.60635800  1
  O  O78  1  0.83814500  0.70296200  0.41211400  1
  O  O79  1  0.16266750  0.29751750  0.90890500  1
  O  O80  1  0.99239500  0.54133800  0.89364200  1
  O  O81  1  0.00760500  0.45866200  0.10635800  1
  O  O82  1  0.83733250  0.70248250  0.09109500  1
  O  O83  1  0.16185500  0.29703800  0.58788600  1
  O  O84  1  0.99239500  0.45866200  0.39364200  1
  O  O85  1  0.17694600  0.25529700  0.25206100  1
  O  O86  1  0.66671800  0.55090000  0.88128300  1
  O  O87  1  0.99846700  0.20771400  0.07372900  1
  O  O88  1  0.00000000  0.24593600  0.75000000  1
  O  O89  1  0.66671800  0.44910000  0.38128300  1
  O  O90  1  0.00153300  0.20771400  0.42627100  1
  O  O91  1  0.65974600  0.55681900  0.61583100  1
  O  O92  1  0.82305400  0.25529700  0.24793900  1
  O  O93  1  0.65974600  0.44318100  0.11583100  1
  O  O94  1  0.83733250  0.29751750  0.59109500  1
  O  O95  1  0.83814500  0.29703800  0.91211400  1
