# generated using pymatgen
data_K4CoMo4O15
_symmetry_space_group_name_H-M   'P 1'
_cell_length_a   10.47964047
_cell_length_b   10.47964047
_cell_length_c   8.31032600
_cell_angle_alpha   90.00000000
_cell_angle_beta   90.00000000
_cell_angle_gamma   120.00000000
_symmetry_Int_Tables_number   1
_chemical_formula_structural   K4CoMo4O15
_chemical_formula_sum   'K8 Co2 Mo8 O30'
_cell_volume   790.39003978
_cell_formula_units_Z   2
loop_
 _symmetry_equiv_pos_site_id
 _symmetry_equiv_pos_as_xyz
  1  'x, y, z'
loop_
 _atom_site_type_symbol
 _atom_site_label
 _atom_site_symmetry_multiplicity
 _atom_site_fract_x
 _atom_site_fract_y
 _atom_site_fract_z
 _atom_site_occupancy
  K  K0  1  0.09248933  0.69504467  0.14018600  1
  K  K1  1  0.60255533  0.90751067  0.14018600  1
  K  K2  1  0.39744467  0.09248933  0.85981400  1
  K  K3  1  0.00000000  0.00000000  0.00000000  1
  K  K4  1  0.90751067  0.30495533  0.85981400  1
  K  K5  1  0.69504467  0.60255533  0.85981400  1
  K  K6  1  0.30495533  0.39744467  0.14018600  1
  K  K7  1  0.00000000  0.00000000  0.50000000  1
  Co  Co8  1  0.33333333  0.66666667  0.47397800  1
  Co  Co9  1  0.66666667  0.33333333  0.52602200  1
  Mo  Mo10  1  0.98743833  0.32911767  0.36549200  1
  Mo  Mo11  1  0.01256167  0.67088233  0.63450800  1
  Mo  Mo12  1  0.34167933  0.01256167  0.36549200  1
  Mo  Mo13  1  0.66666667  0.33333333  0.14878100  1
  Mo  Mo14  1  0.65832067  0.98743833  0.63450800  1
  Mo  Mo15  1  0.33333333  0.66666667  0.85121900  1
  Mo  Mo16  1  0.67088233  0.65832067  0.36549200  1
  Mo  Mo17  1  0.32911767  0.34167933  0.63450800  1
  O  O18  1  0.47727833  0.81539867  0.65353800  1
  O  O19  1  0.66187967  0.47727833  0.34646200  1
  O  O20  1  0.72955233  0.99011067  0.44191700  1
  O  O21  1  0.48898733  0.63938767  0.34608700  1
  O  O22  1  0.17637133  0.51928967  0.94500600  1
  O  O23  1  0.15040033  0.51101267  0.34608700  1
  O  O24  1  0.27044767  0.00988933  0.55808300  1
  O  O25  1  0.36061233  0.84959967  0.34608700  1
  O  O26  1  0.51928967  0.34291833  0.05499400  1
  O  O27  1  0.84959967  0.48898733  0.65391300  1
  O  O28  1  0.33812033  0.52272167  0.65353800  1
  O  O29  1  0.81539867  0.33812033  0.34646200  1
  O  O30  1  0.99011067  0.26055833  0.55808300  1
  O  O31  1  0.73944167  0.72955233  0.55808300  1
  O  O32  1  0.34291833  0.82362867  0.94500600  1
  O  O33  1  0.82362867  0.48071033  0.05499400  1
  O  O34  1  0.22010433  0.00389467  0.21012000  1
  O  O35  1  0.00988933  0.73944167  0.44191700  1
  O  O36  1  0.65708167  0.17637133  0.05499400  1
  O  O37  1  0.77989567  0.99610533  0.78988000  1
  O  O38  1  0.99610533  0.21620967  0.21012000  1
  O  O39  1  0.52272167  0.18460133  0.34646200  1
  O  O40  1  0.51101267  0.36061233  0.65391300  1
  O  O41  1  0.18460133  0.66187967  0.65353800  1
  O  O42  1  0.26055833  0.27044767  0.44191700  1
  O  O43  1  0.63938767  0.15040033  0.65391300  1
  O  O44  1  0.78379033  0.77989567  0.21012000  1
  O  O45  1  0.00389467  0.78379033  0.78988000  1
  O  O46  1  0.48071033  0.65708167  0.94500600  1
  O  O47  1  0.21620967  0.22010433  0.78988000  1
