# generated using pymatgen
data_Li3Ti(NiO3)2
_symmetry_space_group_name_H-M   'P 1'
_cell_length_a   12.97960614
_cell_length_b   2.92339089
_cell_length_c   5.90350576
_cell_angle_alpha   90.00000000
_cell_angle_beta   103.19054490
_cell_angle_gamma   90.00000000
_symmetry_Int_Tables_number   1
_chemical_formula_structural   Li3Ti(NiO3)2
_chemical_formula_sum   'Li6 Ti2 Ni4 O12'
_cell_volume   218.09532290
_cell_formula_units_Z   2
loop_
 _symmetry_equiv_pos_site_id
 _symmetry_equiv_pos_as_xyz
  1  'x, y, z'
loop_
 _atom_site_type_symbol
 _atom_site_label
 _atom_site_symmetry_multiplicity
 _atom_site_fract_x
 _atom_site_fract_y
 _atom_site_fract_z
 _atom_site_occupancy
  Li  Li0  1  0.50000000  0.00000000  0.50000000  1
  Li  Li1  1  0.17254800  0.00000000  0.82923600  1
  Li  Li2  1  0.32745200  0.50000000  0.17076400  1
  Li  Li3  1  0.00000000  0.50000000  0.50000000  1
  Li  Li4  1  0.67254800  0.50000000  0.82923600  1
  Li  Li5  1  0.82745200  0.00000000  0.17076400  1
  Ti  Ti6  1  0.50000000  0.00000000  0.00000000  1
  Ti  Ti7  1  0.00000000  0.50000000  0.00000000  1
  Ni  Ni8  1  0.16879150  0.00000000  0.33815100  1
  Ni  Ni9  1  0.33120850  0.50000000  0.66184900  1
  Ni  Ni10  1  0.66879150  0.50000000  0.33815100  1
  Ni  Ni11  1  0.83120850  0.00000000  0.66184900  1
  O  O12  1  0.65682900  0.00000000  0.09009950  1
  O  O13  1  0.34317100  0.00000000  0.90990050  1
  O  O14  1  0.33238750  0.00000000  0.43181400  1
  O  O15  1  0.16761250  0.50000000  0.56818600  1
  O  O16  1  0.50249750  0.50000000  0.77454800  1
  O  O17  1  0.49750250  0.50000000  0.22545200  1
  O  O18  1  0.15682900  0.50000000  0.09009950  1
  O  O19  1  0.84317100  0.50000000  0.90990050  1
  O  O20  1  0.83238750  0.50000000  0.43181400  1
  O  O21  1  0.66761250  0.00000000  0.56818600  1
  O  O22  1  0.00249750  0.00000000  0.77454800  1
  O  O23  1  0.99750250  0.00000000  0.22545200  1
