# generated using pymatgen
data_LiCrPO4
_symmetry_space_group_name_H-M   'P 1'
_cell_length_a   14.04839912
_cell_length_b   14.04839912
_cell_length_c   9.49624526
_cell_angle_alpha   90.00000000
_cell_angle_beta   90.00000000
_cell_angle_gamma   120.00000000
_symmetry_Int_Tables_number   1
_chemical_formula_structural   LiCrPO4
_chemical_formula_sum   'Li18 Cr18 P18 O72'
_cell_volume   1623.06618125
_cell_formula_units_Z   18
loop_
 _symmetry_equiv_pos_site_id
 _symmetry_equiv_pos_as_xyz
  1  'x, y, z'
loop_
 _atom_site_type_symbol
 _atom_site_label
 _atom_site_symmetry_multiplicity
 _atom_site_fract_x
 _atom_site_fract_y
 _atom_site_fract_z
 _atom_site_occupancy
  Li  Li0  1  0.67735100  0.54204800  0.46925200  1
  Li  Li1  1  0.97682700  0.78592300  0.64027400  1
  Li  Li2  1  0.80909600  0.02317300  0.64027400  1
  Li  Li3  1  0.86469700  0.32264900  0.46925200  1
  Li  Li4  1  0.21407700  0.19090400  0.64027400  1
  Li  Li5  1  0.45795200  0.13530300  0.46925200  1
  Li  Li6  1  0.34401767  0.87538133  0.80258533  1
  Li  Li7  1  0.64349367  0.11925633  0.97360733  1
  Li  Li8  1  0.47576267  0.35650633  0.97360733  1
  Li  Li9  1  0.53136367  0.65598233  0.80258533  1
  Li  Li10  1  0.88074367  0.52423733  0.97360733  1
  Li  Li11  1  0.12461867  0.46863633  0.80258533  1
  Li  Li12  1  0.01068433  0.20871467  0.13591867  1
  Li  Li13  1  0.31016033  0.45258967  0.30694067  1
  Li  Li14  1  0.14242933  0.68983967  0.30694067  1
  Li  Li15  1  0.19803033  0.98931567  0.13591867  1
  Li  Li16  1  0.54741033  0.85757067  0.30694067  1
  Li  Li17  1  0.79128533  0.80196967  0.13591867  1
  Cr  Cr18  1  0.54880733  0.86579667  0.63552467  1
  Cr  Cr19  1  0.79054667  0.81462633  0.47274133  1
  Cr  Cr20  1  0.13420333  0.68301067  0.63552467  1
  Cr  Cr21  1  0.18537367  0.97592033  0.47274133  1
  Cr  Cr22  1  0.02407967  0.20945333  0.47274133  1
  Cr  Cr23  1  0.31698933  0.45119267  0.63552467  1
  Cr  Cr24  1  0.21547400  0.19913000  0.96885800  1
  Cr  Cr25  1  0.45721333  0.14795967  0.80607467  1
  Cr  Cr26  1  0.80087000  0.01634400  0.96885800  1
  Cr  Cr27  1  0.85204033  0.30925367  0.80607467  1
  Cr  Cr28  1  0.69074633  0.54278667  0.80607467  1
  Cr  Cr29  1  0.98365600  0.78452600  0.96885800  1
  Cr  Cr30  1  0.88214067  0.53246333  0.30219133  1
  Cr  Cr31  1  0.12388000  0.48129300  0.13940800  1
  Cr  Cr32  1  0.46753667  0.34967733  0.30219133  1
  Cr  Cr33  1  0.51870700  0.64258700  0.13940800  1
  Cr  Cr34  1  0.35741300  0.87612000  0.13940800  1
  Cr  Cr35  1  0.65032267  0.11785933  0.30219133  1
  P  P36  1  0.52871400  0.65040800  0.47559100  1
  P  P37  1  0.99082200  0.79689500  0.30761300  1
  P  P38  1  0.80607300  0.00917800  0.30761300  1
  P  P39  1  0.34959200  0.87830600  0.47559100  1
  P  P40  1  0.20310500  0.19392700  0.30761300  1
  P  P41  1  0.12169400  0.47128600  0.47559100  1
  P  P42  1  0.19538067  0.98374133  0.80892433  1
  P  P43  1  0.65748867  0.13022833  0.64094633  1
  P  P44  1  0.47273967  0.34251133  0.64094633  1
  P  P45  1  0.01625867  0.21163933  0.80892433  1
  P  P46  1  0.86977167  0.52726033  0.64094633  1
  P  P47  1  0.78836067  0.80461933  0.80892433  1
  P  P48  1  0.86204733  0.31707467  0.14225767  1
  P  P49  1  0.32415533  0.46356167  0.97427967  1
  P  P50  1  0.13940633  0.67584467  0.97427967  1
  P  P51  1  0.68292533  0.54497267  0.14225767  1
  P  P52  1  0.53643833  0.86059367  0.97427967  1
  P  P53  1  0.45502733  0.13795267  0.14225767  1
  O  O54  1  0.74243000  0.54308100  0.27889100  1
  O  O55  1  0.64722267  0.66778633  0.47644833  1
  O  O56  1  0.53688333  0.76503367  0.46995667  1
  O  O57  1  0.30885833  0.30837067  0.32885967  1
  O  O58  1  0.78310300  0.86712300  0.67586900  1
  O  O59  1  0.99951233  0.69114167  0.32885967  1
  O  O60  1  0.78380100  0.88935500  0.28768000  1
  O  O61  1  0.94157900  0.81644700  0.44549200  1
  O  O62  1  0.92073467  0.78659333  0.17657933  1
  O  O63  1  0.86585867  0.07926533  0.17657933  1
  O  O64  1  0.87486800  0.05842100  0.44549200  1
  O  O65  1  0.23496633  0.77184967  0.46995667  1
  O  O66  1  0.11064500  0.89444600  0.28768000  1
  O  O67  1  0.13287700  0.91598000  0.67586900  1
  O  O68  1  0.80065100  0.25757000  0.27889100  1
  O  O69  1  0.08402000  0.21689700  0.67586900  1
  O  O70  1  0.10555400  0.21619900  0.28768000  1
  O  O71  1  0.33221367  0.97943633  0.47644833  1
  O  O72  1  0.21340667  0.13414133  0.17657933  1
  O  O73  1  0.18355300  0.12513200  0.44549200  1
  O  O74  1  0.02056367  0.35277733  0.47644833  1
  O  O75  1  0.45691900  0.19934900  0.27889100  1
  O  O76  1  0.69162933  0.00048767  0.32885967  1
  O  O77  1  0.22815033  0.46311667  0.46995667  1
  O  O78  1  0.40909667  0.87641433  0.61222433  1
  O  O79  1  0.31388933  0.00111967  0.80978167  1
  O  O80  1  0.20355000  0.09836700  0.80329000  1
  O  O81  1  0.97552500  0.64170400  0.66219300  1
  O  O82  1  0.44976967  0.20045633  0.00920233  1
  O  O83  1  0.66617900  0.02447500  0.66219300  1
  O  O84  1  0.45046767  0.22268833  0.62101333  1
  O  O85  1  0.60824567  0.14978033  0.77882533  1
  O  O86  1  0.58740133  0.11992667  0.50991267  1
  O  O87  1  0.53252533  0.41259867  0.50991267  1
  O  O88  1  0.54153467  0.39175433  0.77882533  1
  O  O89  1  0.90163300  0.10518300  0.80329000  1
  O  O90  1  0.77731167  0.22777933  0.62101333  1
  O  O91  1  0.79954367  0.24931333  0.00920233  1
  O  O92  1  0.46731767  0.59090333  0.61222433  1
  O  O93  1  0.75068667  0.55023033  0.00920233  1
  O  O94  1  0.77222067  0.54953233  0.62101333  1
  O  O95  1  0.99888033  0.31276967  0.80978167  1
  O  O96  1  0.88007333  0.46747467  0.50991267  1
  O  O97  1  0.85021967  0.45846533  0.77882533  1
  O  O98  1  0.68723033  0.68611067  0.80978167  1
  O  O99  1  0.12358567  0.53268233  0.61222433  1
  O  O100  1  0.35829600  0.33382100  0.66219300  1
  O  O101  1  0.89481700  0.79645000  0.80329000  1
  O  O102  1  0.07576333  0.20974767  0.94555767  1
  O  O103  1  0.98055600  0.33445300  0.14311500  1
  O  O104  1  0.87021667  0.43170033  0.13662333  1
  O  O105  1  0.64219167  0.97503733  0.99552633  1
  O  O106  1  0.11643633  0.53378967  0.34253567  1
  O  O107  1  0.33284567  0.35780833  0.99552633  1
  O  O108  1  0.11713433  0.55602167  0.95434667  1
  O  O109  1  0.27491233  0.48311367  0.11215867  1
  O  O110  1  0.25406800  0.45326000  0.84324600  1
  O  O111  1  0.19919200  0.74593200  0.84324600  1
  O  O112  1  0.20820133  0.72508767  0.11215867  1
  O  O113  1  0.56829967  0.43851633  0.13662333  1
  O  O114  1  0.44397833  0.56111267  0.95434667  1
  O  O115  1  0.46621033  0.58264667  0.34253567  1
  O  O116  1  0.13398433  0.92423667  0.94555767  1
  O  O117  1  0.41735333  0.88356367  0.34253567  1
  O  O118  1  0.43888733  0.88286567  0.95434667  1
  O  O119  1  0.66554700  0.64610300  0.14311500  1
  O  O120  1  0.54674000  0.80080800  0.84324600  1
  O  O121  1  0.51688633  0.79179867  0.11215867  1
  O  O122  1  0.35389700  0.01944400  0.14311500  1
  O  O123  1  0.79025233  0.86601567  0.94555767  1
  O  O124  1  0.02496267  0.66715433  0.99552633  1
  O  O125  1  0.56148367  0.12978333  0.13662333  1
