# generated using pymatgen
data_Co6O5F7
_symmetry_space_group_name_H-M   'P 1'
_cell_length_a   6.24373600
_cell_length_b   7.02798600
_cell_length_c   8.94692400
_cell_angle_alpha   90.00000000
_cell_angle_beta   90.00000000
_cell_angle_gamma   90.00000000
_symmetry_Int_Tables_number   1
_chemical_formula_structural   Co6O5F7
_chemical_formula_sum   'Co12 O10 F14'
_cell_volume   392.59898069
_cell_formula_units_Z   2
loop_
 _symmetry_equiv_pos_site_id
 _symmetry_equiv_pos_as_xyz
  1  'x, y, z'
loop_
 _atom_site_type_symbol
 _atom_site_label
 _atom_site_symmetry_multiplicity
 _atom_site_fract_x
 _atom_site_fract_y
 _atom_site_fract_z
 _atom_site_occupancy
  Co  Co0  1  0.99620300  0.00000000  0.83315600  1
  Co  Co1  1  0.99620300  0.00000000  0.16684400  1
  Co  Co2  1  0.02336000  0.00000000  0.50000000  1
  Co  Co3  1  0.49476700  0.00000000  0.00000000  1
  Co  Co4  1  0.49717800  0.00000000  0.67193400  1
  Co  Co5  1  0.49717800  0.00000000  0.32806600  1
  Co  Co6  1  0.49620300  0.50000000  0.83315600  1
  Co  Co7  1  0.49620300  0.50000000  0.16684400  1
  Co  Co8  1  0.52336000  0.50000000  0.50000000  1
  Co  Co9  1  0.99476700  0.50000000  0.00000000  1
  Co  Co10  1  0.99717800  0.50000000  0.67193400  1
  Co  Co11  1  0.99717800  0.50000000  0.32806600  1
  O  O12  1  0.29841600  0.00000000  0.16389900  1
  O  O13  1  0.29841600  0.00000000  0.83610100  1
  O  O14  1  0.32132500  0.00000000  0.50000000  1
  O  O15  1  0.68988000  0.00000000  0.83586000  1
  O  O16  1  0.68988000  0.00000000  0.16414000  1
  O  O17  1  0.79841600  0.50000000  0.16389900  1
  O  O18  1  0.79841600  0.50000000  0.83610100  1
  O  O19  1  0.82132500  0.50000000  0.50000000  1
  O  O20  1  0.18988000  0.50000000  0.83586000  1
  O  O21  1  0.18988000  0.50000000  0.16414000  1
  F  F22  1  0.49513350  0.30681750  0.00000000  1
  F  F23  1  0.50118800  0.30370300  0.66865300  1
  F  F24  1  0.50118800  0.30370300  0.33134700  1
  F  F25  1  0.70217500  0.00000000  0.50000000  1
  F  F26  1  0.49513350  0.69318250  0.00000000  1
  F  F27  1  0.50118800  0.69629700  0.66865300  1
  F  F28  1  0.50118800  0.69629700  0.33134700  1
  F  F29  1  0.99513350  0.80681750  0.00000000  1
  F  F30  1  0.00118800  0.80370300  0.66865300  1
  F  F31  1  0.00118800  0.80370300  0.33134700  1
  F  F32  1  0.20217500  0.50000000  0.50000000  1
  F  F33  1  0.99513350  0.19318250  0.00000000  1
  F  F34  1  0.00118800  0.19629700  0.66865300  1
  F  F35  1  0.00118800  0.19629700  0.33134700  1
