# generated using pymatgen
data_Li5V3(CoO5)2
_symmetry_space_group_name_H-M   'P 1'
_cell_length_a   5.09575838
_cell_length_b   5.22848750
_cell_length_c   7.91970834
_cell_angle_alpha   107.28075721
_cell_angle_beta   102.66816978
_cell_angle_gamma   100.84873740
_symmetry_Int_Tables_number   1
_chemical_formula_structural   Li5V3(CoO5)2
_chemical_formula_sum   'Li5 V3 Co2 O10'
_cell_volume   189.16701288
_cell_formula_units_Z   1
loop_
 _symmetry_equiv_pos_site_id
 _symmetry_equiv_pos_as_xyz
  1  'x, y, z'
loop_
 _atom_site_type_symbol
 _atom_site_label
 _atom_site_symmetry_multiplicity
 _atom_site_fract_x
 _atom_site_fract_y
 _atom_site_fract_z
 _atom_site_occupancy
  Li  Li0  1  0.77210791  0.50407967  0.42172757  1
  Li  Li1  1  0.60771187  0.51047366  0.77386826  1
  Li  Li2  1  0.00000000  0.00000000  0.50000000  1
  Li  Li3  1  0.39228813  0.48952634  0.22613174  1
  Li  Li4  1  0.22789209  0.49592033  0.57827243  1
  V  V5  1  0.00000000  0.50000000  0.00000000  1
  V  V6  1  0.80174188  0.00970841  0.88182321  1
  V  V7  1  0.19825812  0.99029159  0.11817679  1
  Co  Co8  1  0.40783902  0.99681955  0.68047694  1
  Co  Co9  1  0.59216098  0.00318045  0.31952306  1
  O  O10  1  0.17859963  0.22909708  0.87191044  1
  O  O11  1  0.38819167  0.77317025  0.95837440  1
  O  O12  1  0.59471866  0.75358514  0.55035431  1
  O  O13  1  0.02444410  0.24880113  0.22300637  1
  O  O14  1  0.80941612  0.23381445  0.67185737  1
  O  O15  1  0.19058388  0.76618555  0.32814263  1
  O  O16  1  0.97555590  0.75119887  0.77699363  1
  O  O17  1  0.40528134  0.24641486  0.44964569  1
  O  O18  1  0.61180833  0.22682975  0.04162560  1
  O  O19  1  0.82140037  0.77090292  0.12808956  1
