# generated using pymatgen
data_Li3Co2(CO3)4
_symmetry_space_group_name_H-M   'P 1'
_cell_length_a   7.03480100
_cell_length_b   9.71895500
_cell_length_c   8.57854643
_cell_angle_alpha   90.00000000
_cell_angle_beta   110.32327694
_cell_angle_gamma   90.00000000
_symmetry_Int_Tables_number   1
_chemical_formula_structural   Li3Co2(CO3)4
_chemical_formula_sum   'Li6 Co4 C8 O24'
_cell_volume   550.01077771
_cell_formula_units_Z   2
loop_
 _symmetry_equiv_pos_site_id
 _symmetry_equiv_pos_as_xyz
  1  'x, y, z'
loop_
 _atom_site_type_symbol
 _atom_site_label
 _atom_site_symmetry_multiplicity
 _atom_site_fract_x
 _atom_site_fract_y
 _atom_site_fract_z
 _atom_site_occupancy
  Li  Li0  1  0.25213400  0.39502900  0.59948400  1
  Li  Li1  1  0.68004900  0.81924600  0.81598000  1
  Li  Li2  1  0.74773600  0.11527300  0.09324400  1
  Li  Li3  1  0.74786600  0.89502900  0.40051600  1
  Li  Li4  1  0.25226400  0.61527300  0.90675600  1
  Li  Li5  1  0.31995100  0.31924600  0.18402000  1
  Co  Co6  1  0.19482900  0.86004400  0.67511200  1
  Co  Co7  1  0.80517100  0.36004400  0.32488800  1
  Co  Co8  1  0.70361600  0.63159600  0.19614700  1
  Co  Co9  1  0.29638400  0.13159600  0.80385300  1
  C  C10  1  0.51583000  0.01509600  0.60247900  1
  C  C11  1  0.02447100  0.48019200  0.11935900  1
  C  C12  1  0.00863600  0.61533400  0.52591800  1
  C  C13  1  0.99136400  0.11533400  0.47408200  1
  C  C14  1  0.51111800  0.88578500  0.02734700  1
  C  C15  1  0.48888200  0.38578500  0.97265300  1
  C  C16  1  0.48417000  0.51509600  0.39752100  1
  C  C17  1  0.97552900  0.98019200  0.88064100  1
  O  O18  1  0.44551700  0.89443200  0.62616800  1
  O  O19  1  0.47677400  0.12164900  0.68340700  1
  O  O20  1  0.37748800  0.52791800  0.48605200  1
  O  O21  1  0.90717800  0.58846000  0.10679800  1
  O  O22  1  0.00689800  0.37267600  0.20251000  1
  O  O23  1  0.84170000  0.98155800  0.94976000  1
  O  O24  1  0.14135900  0.65586300  0.66496200  1
  O  O25  1  0.02396800  0.98534600  0.49681300  1
  O  O26  1  0.08697400  0.20572800  0.58539300  1
  O  O27  1  0.91302600  0.70572800  0.41460700  1
  O  O28  1  0.97603200  0.48534600  0.50318700  1
  O  O29  1  0.85864100  0.15586300  0.33503800  1
  O  O30  1  0.64436800  0.83540100  0.16318400  1
  O  O31  1  0.51333800  0.51739200  0.98443100  1
  O  O32  1  0.58144000  0.30114600  0.09075800  1
  O  O33  1  0.41856000  0.80114600  0.90924200  1
  O  O34  1  0.48666200  0.01739200  0.01556900  1
  O  O35  1  0.35563200  0.33540100  0.83681600  1
  O  O36  1  0.62251200  0.02791800  0.51394800  1
  O  O37  1  0.52322600  0.62164900  0.31659300  1
  O  O38  1  0.55448300  0.39443200  0.37383200  1
  O  O39  1  0.15830000  0.48155800  0.05024000  1
  O  O40  1  0.99310200  0.87267600  0.79749000  1
  O  O41  1  0.09282200  0.08846000  0.89320200  1
