# generated using pymatgen
data_Li8Mn15NiO32
_symmetry_space_group_name_H-M   'P 1'
_cell_length_a   11.86514616
_cell_length_b   11.86514616
_cell_length_c   14.45165888
_cell_angle_alpha   90.00000000
_cell_angle_beta   90.00000000
_cell_angle_gamma   120.00000000
_symmetry_Int_Tables_number   1
_chemical_formula_structural   Li8Mn15NiO32
_chemical_formula_sum   'Li24 Mn45 Ni3 O96'
_cell_volume   1761.95380568
_cell_formula_units_Z   3
loop_
 _symmetry_equiv_pos_site_id
 _symmetry_equiv_pos_as_xyz
  1  'x, y, z'
loop_
 _atom_site_type_symbol
 _atom_site_label
 _atom_site_symmetry_multiplicity
 _atom_site_fract_x
 _atom_site_fract_y
 _atom_site_fract_z
 _atom_site_occupancy
  Li  Li0  1  0.83515433  0.16983467  0.29130867  1
  Li  Li1  1  0.66531967  0.83016533  0.70869133  1
  Li  Li2  1  0.16983467  0.83515433  0.70869133  1
  Li  Li3  1  0.83016533  0.66531967  0.29130867  1
  Li  Li4  1  0.00000000  0.00000000  0.62312400  1
  Li  Li5  1  0.00000000  0.00000000  0.37687600  1
  Li  Li6  1  0.16484567  0.33468033  0.70869133  1
  Li  Li7  1  0.33468033  0.16484567  0.29130867  1
  Li  Li8  1  0.50182100  0.50316800  0.62464200  1
  Li  Li9  1  0.33198633  0.16349867  0.04202467  1
  Li  Li10  1  0.83650133  0.16848767  0.04202467  1
  Li  Li11  1  0.49683200  0.99865300  0.62464200  1
  Li  Li12  1  0.66666667  0.33333333  0.95645733  1
  Li  Li13  1  0.66666667  0.33333333  0.71020933  1
  Li  Li14  1  0.83151233  0.66801367  0.04202467  1
  Li  Li15  1  0.00134700  0.49817900  0.62464200  1
  Li  Li16  1  0.16848767  0.83650133  0.95797533  1
  Li  Li17  1  0.99865300  0.49683200  0.37535800  1
  Li  Li18  1  0.50316800  0.50182100  0.37535800  1
  Li  Li19  1  0.16349867  0.33198633  0.95797533  1
  Li  Li20  1  0.33333333  0.66666667  0.28979067  1
  Li  Li21  1  0.33333333  0.66666667  0.04354267  1
  Li  Li22  1  0.49817900  0.00134700  0.37535800  1
  Li  Li23  1  0.66801367  0.83151233  0.95797533  1
  Mn  Mn24  1  0.08027400  0.16393400  0.16856900  1
  Mn  Mn25  1  0.17072767  0.33333333  0.33333333  1
  Mn  Mn26  1  0.91634000  0.83606600  0.83143100  1
  Mn  Mn27  1  0.00000000  0.74944000  0.50000000  1
  Mn  Mn28  1  0.74339100  0.74339100  0.50000000  1
  Mn  Mn29  1  0.91972600  0.08366000  0.83143100  1
  Mn  Mn30  1  0.16393400  0.08027400  0.83143100  1
  Mn  Mn31  1  0.16260567  0.82927233  0.33333333  1
  Mn  Mn32  1  0.74944000  0.00000000  0.50000000  1
  Mn  Mn33  1  0.25660900  0.00000000  0.50000000  1
  Mn  Mn34  1  0.66666667  0.83739433  0.33333333  1
  Mn  Mn35  1  0.08366000  0.91972600  0.16856900  1
  Mn  Mn36  1  0.00000000  0.25660900  0.50000000  1
  Mn  Mn37  1  0.83606600  0.91634000  0.16856900  1
  Mn  Mn38  1  0.25056000  0.25056000  0.50000000  1
  Mn  Mn39  1  0.74694067  0.49726733  0.50190233  1
  Mn  Mn40  1  0.83739433  0.66666667  0.66666667  1
  Mn  Mn41  1  0.58300667  0.16939933  0.16476433  1
  Mn  Mn42  1  0.66666667  0.08277333  0.83333333  1
  Mn  Mn43  1  0.41005767  0.07672433  0.83333333  1
  Mn  Mn44  1  0.58639267  0.41699333  0.16476433  1
  Mn  Mn45  1  0.83060067  0.41360733  0.16476433  1
  Mn  Mn46  1  0.82927233  0.16260567  0.66666667  1
  Mn  Mn47  1  0.41610667  0.33333333  0.83333333  1
  Mn  Mn48  1  0.92327567  0.33333333  0.83333333  1
  Mn  Mn49  1  0.33333333  0.17072767  0.66666667  1
  Mn  Mn50  1  0.75032667  0.25305933  0.50190233  1
  Mn  Mn51  1  0.66666667  0.58994233  0.83333333  1
  Mn  Mn52  1  0.50273267  0.24967333  0.50190233  1
  Mn  Mn53  1  0.91722667  0.58389333  0.83333333  1
  Mn  Mn54  1  0.41360733  0.83060067  0.83523567  1
  Mn  Mn55  1  0.50406100  0.00000000  0.00000000  1
  Mn  Mn56  1  0.24967333  0.50273267  0.49809767  1
  Mn  Mn57  1  0.33333333  0.41610667  0.16666667  1
  Mn  Mn58  1  0.07672433  0.41005767  0.16666667  1
  Mn  Mn59  1  0.25305933  0.75032667  0.49809767  1
  Mn  Mn60  1  0.49726733  0.74694067  0.49809767  1
  Mn  Mn61  1  0.49593900  0.49593900  0.00000000  1
  Mn  Mn62  1  0.08277333  0.66666667  0.16666667  1
  Mn  Mn63  1  0.58994233  0.66666667  0.16666667  1
  Mn  Mn64  1  0.00000000  0.50406100  0.00000000  1
  Mn  Mn65  1  0.41699333  0.58639267  0.83523567  1
  Mn  Mn66  1  0.33333333  0.92327567  0.16666667  1
  Mn  Mn67  1  0.16939933  0.58300667  0.83523567  1
  Mn  Mn68  1  0.58389333  0.91722667  0.16666667  1
  Ni  Ni69  1  0.00000000  0.00000000  0.00000000  1
  Ni  Ni70  1  0.66666667  0.33333333  0.33333333  1
  Ni  Ni71  1  0.33333333  0.66666667  0.66666667  1
  O  O72  1  0.15171067  0.07756333  0.09705133  1
  O  O73  1  0.92243667  0.07414733  0.09705133  1
  O  O74  1  0.31650067  0.40939633  0.42100533  1
  O  O75  1  0.76951167  0.74933433  0.74687833  1
  O  O76  1  0.02017733  0.25066567  0.25312167  1
  O  O77  1  0.90710433  0.59060367  0.57899467  1
  O  O78  1  0.84828933  0.92585267  0.90294867  1
  O  O79  1  0.07414733  0.92243667  0.90294867  1
  O  O80  1  0.81240900  0.65259900  0.42885700  1
  O  O81  1  0.91300533  0.81348367  0.58266267  1
  O  O82  1  0.00000000  0.00000000  0.76087000  1
  O  O83  1  0.07756333  0.15171067  0.90294867  1
  O  O84  1  0.18759100  0.84019000  0.57114300  1
  O  O85  1  0.09289567  0.68349933  0.42100533  1
  O  O86  1  0.65259900  0.81240900  0.57114300  1
  O  O87  1  0.25066567  0.02017733  0.74687833  1
  O  O88  1  0.08699467  0.90047833  0.41733733  1
  O  O89  1  0.97982267  0.23048833  0.74687833  1
  O  O90  1  0.59060367  0.90710433  0.42100533  1
  O  O91  1  0.81348367  0.91300533  0.41733733  1
  O  O92  1  0.90047833  0.08699467  0.58266267  1
  O  O93  1  0.68349933  0.09289567  0.57899467  1
  O  O94  1  0.74933433  0.76951167  0.25312167  1
  O  O95  1  0.18651633  0.09952167  0.58266267  1
  O  O96  1  0.23048833  0.97982267  0.25312167  1
  O  O97  1  0.84019000  0.18759100  0.42885700  1
  O  O98  1  0.40939633  0.31650067  0.57899467  1
  O  O99  1  0.34740100  0.15981000  0.42885700  1
  O  O100  1  0.92585267  0.84828933  0.09705133  1
  O  O101  1  0.00000000  0.00000000  0.23913000  1
  O  O102  1  0.09952167  0.18651633  0.41733733  1
  O  O103  1  0.15981000  0.34740100  0.57114300  1
  O  O104  1  0.81837733  0.41089667  0.43038467  1
  O  O105  1  0.58910333  0.40748067  0.43038467  1
  O  O106  1  0.98316733  0.74272967  0.75433867  1
  O  O107  1  0.43617833  0.08266767  0.08021167  1
  O  O108  1  0.68684400  0.58399900  0.58645500  1
  O  O109  1  0.57377100  0.92393700  0.91232800  1
  O  O110  1  0.51495600  0.25918600  0.23628200  1
  O  O111  1  0.74081400  0.25577000  0.23628200  1
  O  O112  1  0.47907567  0.98593233  0.76219033  1
  O  O113  1  0.57967200  0.14681700  0.91599600  1
  O  O114  1  0.66666667  0.33333333  0.09420333  1
  O  O115  1  0.74423000  0.48504400  0.23628200  1
  O  O116  1  0.85425767  0.17352333  0.90447633  1
  O  O117  1  0.75956233  0.01683267  0.75433867  1
  O  O118  1  0.31926567  0.14574233  0.90447633  1
  O  O119  1  0.91733233  0.35351067  0.08021167  1
  O  O120  1  0.75366133  0.23381167  0.75067067  1
  O  O121  1  0.64648933  0.56382167  0.08021167  1
  O  O122  1  0.25727033  0.24043767  0.75433867  1
  O  O123  1  0.48015033  0.24633867  0.75067067  1
  O  O124  1  0.56714500  0.42032800  0.91599600  1
  O  O125  1  0.35016600  0.42622900  0.91232800  1
  O  O126  1  0.41600100  0.10284500  0.58645500  1
  O  O127  1  0.85318300  0.43285500  0.91599600  1
  O  O128  1  0.89715500  0.31315600  0.58645500  1
  O  O129  1  0.50685667  0.52092433  0.76219033  1
  O  O130  1  0.07606300  0.64983400  0.91232800  1
  O  O131  1  0.01406767  0.49314333  0.76219033  1
  O  O132  1  0.59251933  0.18162267  0.43038467  1
  O  O133  1  0.66666667  0.33333333  0.57246333  1
  O  O134  1  0.76618833  0.51984967  0.75067067  1
  O  O135  1  0.82647667  0.68073433  0.90447633  1
  O  O136  1  0.48504400  0.74423000  0.76371800  1
  O  O137  1  0.25577000  0.74081400  0.76371800  1
  O  O138  1  0.64983400  0.07606300  0.08767200  1
  O  O139  1  0.10284500  0.41600100  0.41354500  1
  O  O140  1  0.35351067  0.91733233  0.91978833  1
  O  O141  1  0.24043767  0.25727033  0.24566133  1
  O  O142  1  0.18162267  0.59251933  0.56961533  1
  O  O143  1  0.40748067  0.58910333  0.56961533  1
  O  O144  1  0.14574233  0.31926567  0.09552367  1
  O  O145  1  0.24633867  0.48015033  0.24932933  1
  O  O146  1  0.33333333  0.66666667  0.42753667  1
  O  O147  1  0.41089667  0.81837733  0.56961533  1
  O  O148  1  0.52092433  0.50685667  0.23780967  1
  O  O149  1  0.42622900  0.35016600  0.08767200  1
  O  O150  1  0.98593233  0.47907567  0.23780967  1
  O  O151  1  0.58399900  0.68684400  0.41354500  1
  O  O152  1  0.42032800  0.56714500  0.08400400  1
  O  O153  1  0.31315600  0.89715500  0.41354500  1
  O  O154  1  0.92393700  0.57377100  0.08767200  1
  O  O155  1  0.14681700  0.57967200  0.08400400  1
  O  O156  1  0.23381167  0.75366133  0.24932933  1
  O  O157  1  0.01683267  0.75956233  0.24566133  1
  O  O158  1  0.08266767  0.43617833  0.91978833  1
  O  O159  1  0.51984967  0.76618833  0.24932933  1
  O  O160  1  0.56382167  0.64648933  0.91978833  1
  O  O161  1  0.17352333  0.85425767  0.09552367  1
  O  O162  1  0.74272967  0.98316733  0.24566133  1
  O  O163  1  0.68073433  0.82647667  0.09552367  1
  O  O164  1  0.25918600  0.51495600  0.76371800  1
  O  O165  1  0.33333333  0.66666667  0.90579667  1
  O  O166  1  0.43285500  0.85318300  0.08400400  1
  O  O167  1  0.49314333  0.01406767  0.23780967  1
