# generated using pymatgen
data_LiNbPO5
_symmetry_space_group_name_H-M   'P 1'
_cell_length_a   14.23741400
_cell_length_b   5.43701600
_cell_length_c   10.89639337
_cell_angle_alpha   90.00000000
_cell_angle_beta   113.61156551
_cell_angle_gamma   90.00000000
_symmetry_Int_Tables_number   1
_chemical_formula_structural   LiNbPO5
_chemical_formula_sum   'Li8 Nb8 P8 O40'
_cell_volume   772.86493712
_cell_formula_units_Z   8
loop_
 _symmetry_equiv_pos_site_id
 _symmetry_equiv_pos_as_xyz
  1  'x, y, z'
loop_
 _atom_site_type_symbol
 _atom_site_label
 _atom_site_symmetry_multiplicity
 _atom_site_fract_x
 _atom_site_fract_y
 _atom_site_fract_z
 _atom_site_occupancy
  Li  Li0  1  0.75324700  0.24991400  0.25078700  1
  Li  Li1  1  0.99922950  0.00230050  0.24796600  1
  Li  Li2  1  0.00077050  0.00230050  0.75203400  1
  Li  Li3  1  0.24675300  0.24991400  0.74921300  1
  Li  Li4  1  0.25324700  0.74991400  0.25078700  1
  Li  Li5  1  0.49922950  0.50230050  0.24796600  1
  Li  Li6  1  0.50077050  0.50230050  0.75203400  1
  Li  Li7  1  0.74675300  0.74991400  0.74921300  1
  Nb  Nb8  1  0.00000000  0.00020700  0.00000000  1
  Nb  Nb9  1  0.74890400  0.75064300  0.24834500  1
  Nb  Nb10  1  0.00000000  0.00090200  0.50000000  1
  Nb  Nb11  1  0.25109600  0.75064300  0.75165500  1
  Nb  Nb12  1  0.50000000  0.50020700  0.00000000  1
  Nb  Nb13  1  0.24890400  0.25064300  0.24834500  1
  Nb  Nb14  1  0.50000000  0.50090200  0.50000000  1
  Nb  Nb15  1  0.75109600  0.25064300  0.75165500  1
  P  P16  1  0.87551700  0.50191500  0.06013900  1
  P  P17  1  0.12396900  0.49899700  0.43662500  1
  P  P18  1  0.87603100  0.49899700  0.56337500  1
  P  P19  1  0.12448300  0.50191500  0.93986100  1
  P  P20  1  0.37551700  0.00191500  0.06013900  1
  P  P21  1  0.62396900  0.99899700  0.43662500  1
  P  P22  1  0.37603100  0.99899700  0.56337500  1
  P  P23  1  0.62448300  0.00191500  0.93986100  1
  O  O24  1  0.69415950  0.00384350  0.08989900  1
  O  O25  1  0.81194500  0.51041400  0.14649300  1
  O  O26  1  0.94394650  0.73605150  0.09111500  1
  O  O27  1  0.87390850  0.96222350  0.33177500  1
  O  O28  1  0.93994250  0.26394150  0.09464200  1
  O  O29  1  0.62467900  0.54044200  0.16540700  1
  O  O30  1  0.80424700  0.49826400  0.40813200  1
  O  O31  1  0.68680700  0.99330200  0.34931900  1
  O  O32  1  0.94243650  0.26363550  0.59071700  1
  O  O33  1  0.93983850  0.73671550  0.59538500  1
  O  O34  1  0.05756350  0.26363550  0.40928300  1
  O  O35  1  0.06016150  0.73671550  0.40461500  1
  O  O36  1  0.19575300  0.49826400  0.59186800  1
  O  O37  1  0.31319300  0.99330200  0.65068100  1
  O  O38  1  0.06005750  0.26394150  0.90535800  1
  O  O39  1  0.12609150  0.96222350  0.66822500  1
  O  O40  1  0.05605350  0.73605150  0.90888500  1
  O  O41  1  0.37532100  0.54044200  0.83459300  1
  O  O42  1  0.18805500  0.51041400  0.85350700  1
  O  O43  1  0.30584050  0.00384350  0.91010100  1
  O  O44  1  0.19415950  0.50384350  0.08989900  1
  O  O45  1  0.31194500  0.01041400  0.14649300  1
  O  O46  1  0.44394650  0.23605150  0.09111500  1
  O  O47  1  0.37390850  0.46222350  0.33177500  1
  O  O48  1  0.43994250  0.76394150  0.09464200  1
  O  O49  1  0.12467900  0.04044200  0.16540700  1
  O  O50  1  0.30424700  0.99826400  0.40813200  1
  O  O51  1  0.18680700  0.49330200  0.34931900  1
  O  O52  1  0.44243650  0.76363550  0.59071700  1
  O  O53  1  0.43983850  0.23671550  0.59538500  1
  O  O54  1  0.55756350  0.76363550  0.40928300  1
  O  O55  1  0.56016150  0.23671550  0.40461500  1
  O  O56  1  0.69575300  0.99826400  0.59186800  1
  O  O57  1  0.81319300  0.49330200  0.65068100  1
  O  O58  1  0.56005750  0.76394150  0.90535800  1
  O  O59  1  0.62609150  0.46222350  0.66822500  1
  O  O60  1  0.55605350  0.23605150  0.90888500  1
  O  O61  1  0.87532100  0.04044200  0.83459300  1
  O  O62  1  0.68805500  0.01041400  0.85350700  1
  O  O63  1  0.80584050  0.50384350  0.91010100  1
