# generated using pymatgen
data_V2CoO6
_symmetry_space_group_name_H-M   'P 1'
_cell_length_a   10.17841406
_cell_length_b   9.08349943
_cell_length_c   5.88740565
_cell_angle_alpha   90.00000000
_cell_angle_beta   111.21901506
_cell_angle_gamma   90.00000000
_symmetry_Int_Tables_number   1
_chemical_formula_structural   V2CoO6
_chemical_formula_sum   'V8 Co4 O24'
_cell_volume   507.42061414
_cell_formula_units_Z   4
loop_
 _symmetry_equiv_pos_site_id
 _symmetry_equiv_pos_as_xyz
  1  'x, y, z'
loop_
 _atom_site_type_symbol
 _atom_site_label
 _atom_site_symmetry_multiplicity
 _atom_site_fract_x
 _atom_site_fract_y
 _atom_site_fract_z
 _atom_site_occupancy
  V  V0  1  0.20395700  0.59078400  0.74467700  1
  V  V1  1  0.20395700  0.40921600  0.24467700  1
  V  V2  1  0.79604300  0.59078400  0.75532300  1
  V  V3  1  0.79604300  0.40921600  0.25532300  1
  V  V4  1  0.70395700  0.09078400  0.74467700  1
  V  V5  1  0.70395700  0.90921600  0.24467700  1
  V  V6  1  0.29604300  0.09078400  0.75532300  1
  V  V7  1  0.29604300  0.90921600  0.25532300  1
  Co  Co8  1  0.00000000  0.08611700  0.25000000  1
  Co  Co9  1  0.00000000  0.91388300  0.75000000  1
  Co  Co10  1  0.50000000  0.58611700  0.25000000  1
  Co  Co11  1  0.50000000  0.41388300  0.75000000  1
  O  O12  1  0.38525850  0.57832550  0.86474100  1
  O  O13  1  0.38525850  0.42167450  0.36474100  1
  O  O14  1  0.61474150  0.57832550  0.63525900  1
  O  O15  1  0.61474150  0.42167450  0.13525900  1
  O  O16  1  0.14694650  0.76549850  0.72578600  1
  O  O17  1  0.85305350  0.76549850  0.77421400  1
  O  O18  1  0.14694650  0.23450150  0.22578600  1
  O  O19  1  0.85305350  0.23450150  0.27421400  1
  O  O20  1  0.13949000  0.48984500  0.94546200  1
  O  O21  1  0.13949000  0.51015500  0.44546200  1
  O  O22  1  0.86051000  0.48984500  0.55453800  1
  O  O23  1  0.86051000  0.51015500  0.05453800  1
  O  O24  1  0.88525850  0.07832550  0.86474100  1
  O  O25  1  0.88525850  0.92167450  0.36474100  1
  O  O26  1  0.11474150  0.07832550  0.63525900  1
  O  O27  1  0.11474150  0.92167450  0.13525900  1
  O  O28  1  0.64694650  0.26549850  0.72578600  1
  O  O29  1  0.35305350  0.26549850  0.77421400  1
  O  O30  1  0.64694650  0.73450150  0.22578600  1
  O  O31  1  0.35305350  0.73450150  0.27421400  1
  O  O32  1  0.63949000  0.98984500  0.94546200  1
  O  O33  1  0.63949000  0.01015500  0.44546200  1
  O  O34  1  0.36051000  0.98984500  0.55453800  1
  O  O35  1  0.36051000  0.01015500  0.05453800  1
