# generated using pymatgen
data_Li2TiCuO4
_symmetry_space_group_name_H-M   'P 1'
_cell_length_a   5.72827000
_cell_length_b   5.78824000
_cell_length_c   9.26664200
_cell_angle_alpha   90.00000000
_cell_angle_beta   90.00000000
_cell_angle_gamma   90.00000000
_symmetry_Int_Tables_number   1
_chemical_formula_structural   Li2TiCuO4
_chemical_formula_sum   'Li8 Ti4 Cu4 O16'
_cell_volume   307.25035645
_cell_formula_units_Z   4
loop_
 _symmetry_equiv_pos_site_id
 _symmetry_equiv_pos_as_xyz
  1  'x, y, z'
loop_
 _atom_site_type_symbol
 _atom_site_label
 _atom_site_symmetry_multiplicity
 _atom_site_fract_x
 _atom_site_fract_y
 _atom_site_fract_z
 _atom_site_occupancy
  Li  Li0  1  0.25000000  0.25000000  0.75000000  1
  Li  Li1  1  0.50000000  0.50000000  0.00000000  1
  Li  Li2  1  0.75000000  0.25000000  0.75000000  1
  Li  Li3  1  0.50000000  0.00000000  0.00000000  1
  Li  Li4  1  0.75000000  0.75000000  0.25000000  1
  Li  Li5  1  0.00000000  0.00000000  0.50000000  1
  Li  Li6  1  0.25000000  0.75000000  0.25000000  1
  Li  Li7  1  0.00000000  0.50000000  0.50000000  1
  Ti  Ti8  1  0.00000000  0.00000000  0.00000000  1
  Ti  Ti9  1  0.00000000  0.50000000  0.00000000  1
  Ti  Ti10  1  0.50000000  0.50000000  0.50000000  1
  Ti  Ti11  1  0.50000000  0.00000000  0.50000000  1
  Cu  Cu12  1  0.25000000  0.75000000  0.75000000  1
  Cu  Cu13  1  0.75000000  0.75000000  0.75000000  1
  Cu  Cu14  1  0.75000000  0.25000000  0.25000000  1
  Cu  Cu15  1  0.25000000  0.25000000  0.25000000  1
  O  O16  1  0.00000000  0.51736400  0.78230000  1
  O  O17  1  0.26435200  0.25000000  0.51688900  1
  O  O18  1  0.00000000  0.98263600  0.78230000  1
  O  O19  1  0.73564800  0.25000000  0.51688900  1
  O  O20  1  0.76435200  0.25000000  0.98311100  1
  O  O21  1  0.50000000  0.51736400  0.71770000  1
  O  O22  1  0.23564800  0.25000000  0.98311100  1
  O  O23  1  0.50000000  0.98263600  0.71770000  1
  O  O24  1  0.50000000  0.01736400  0.28230000  1
  O  O25  1  0.76435200  0.75000000  0.01688900  1
  O  O26  1  0.50000000  0.48263600  0.28230000  1
  O  O27  1  0.23564800  0.75000000  0.01688900  1
  O  O28  1  0.26435200  0.75000000  0.48311100  1
  O  O29  1  0.00000000  0.01736400  0.21770000  1
  O  O30  1  0.73564800  0.75000000  0.48311100  1
  O  O31  1  0.00000000  0.48263600  0.21770000  1
