# generated using pymatgen
data_Li3Ti2V2O8
_symmetry_space_group_name_H-M   'P 1'
_cell_length_a   10.39511539
_cell_length_b   5.97081200
_cell_length_c   6.03156448
_cell_angle_alpha   90.00000000
_cell_angle_beta   125.51982585
_cell_angle_gamma   90.00000000
_symmetry_Int_Tables_number   1
_chemical_formula_structural   Li3Ti2V2O8
_chemical_formula_sum   'Li6 Ti4 V4 O16'
_cell_volume   304.69932247
_cell_formula_units_Z   2
loop_
 _symmetry_equiv_pos_site_id
 _symmetry_equiv_pos_as_xyz
  1  'x, y, z'
loop_
 _atom_site_type_symbol
 _atom_site_label
 _atom_site_symmetry_multiplicity
 _atom_site_fract_x
 _atom_site_fract_y
 _atom_site_fract_z
 _atom_site_occupancy
  Li  Li0  1  0.75000000  0.75000000  0.00000000  1
  Li  Li1  1  0.75000000  0.25000000  0.00000000  1
  Li  Li2  1  0.00000000  0.00000000  0.00000000  1
  Li  Li3  1  0.25000000  0.25000000  0.00000000  1
  Li  Li4  1  0.25000000  0.75000000  0.00000000  1
  Li  Li5  1  0.50000000  0.50000000  0.00000000  1
  Ti  Ti6  1  0.75000000  0.25000000  0.50000000  1
  Ti  Ti7  1  0.75000000  0.75000000  0.50000000  1
  Ti  Ti8  1  0.25000000  0.75000000  0.50000000  1
  Ti  Ti9  1  0.25000000  0.25000000  0.50000000  1
  V  V10  1  0.50000000  0.00000000  0.50000000  1
  V  V11  1  0.00000000  0.50000000  0.00000000  1
  V  V12  1  0.00000000  0.50000000  0.50000000  1
  V  V13  1  0.50000000  0.00000000  0.00000000  1
  O  O14  1  0.48376000  0.76350900  0.74660100  1
  O  O15  1  0.24590100  0.50000000  0.27093000  1
  O  O16  1  0.48376000  0.23649100  0.74660100  1
  O  O17  1  0.74975900  0.00000000  0.72904100  1
  O  O18  1  0.25024100  0.00000000  0.27095900  1
  O  O19  1  0.51624000  0.76350900  0.25339900  1
  O  O20  1  0.75409900  0.50000000  0.72907000  1
  O  O21  1  0.51624000  0.23649100  0.25339900  1
  O  O22  1  0.98376000  0.26350900  0.74660100  1
  O  O23  1  0.74590100  0.00000000  0.27093000  1
  O  O24  1  0.98376000  0.73649100  0.74660100  1
  O  O25  1  0.24975900  0.50000000  0.72904100  1
  O  O26  1  0.75024100  0.50000000  0.27095900  1
  O  O27  1  0.01624000  0.26350900  0.25339900  1
  O  O28  1  0.25409900  0.00000000  0.72907000  1
  O  O29  1  0.01624000  0.73649100  0.25339900  1
