# generated using pymatgen
data_UNb6O16
_symmetry_space_group_name_H-M   'P 1'
_cell_length_a   22.75436800
_cell_length_b   3.82714200
_cell_length_c   7.43761386
_cell_angle_alpha   90.00000000
_cell_angle_beta   96.22761368
_cell_angle_gamma   90.00000000
_symmetry_Int_Tables_number   1
_chemical_formula_structural   UNb6O16
_chemical_formula_sum   'U2 Nb12 O32'
_cell_volume   643.87643367
_cell_formula_units_Z   2
loop_
 _symmetry_equiv_pos_site_id
 _symmetry_equiv_pos_as_xyz
  1  'x, y, z'
loop_
 _atom_site_type_symbol
 _atom_site_label
 _atom_site_symmetry_multiplicity
 _atom_site_fract_x
 _atom_site_fract_y
 _atom_site_fract_z
 _atom_site_occupancy
  U  U0  1  0.00000000  0.00679000  0.00000000  1
  U  U1  1  0.50000000  0.50679000  0.00000000  1
  Nb  Nb2  1  0.57253550  0.52448050  0.53079300  1
  Nb  Nb3  1  0.63248150  0.04581450  0.89083600  1
  Nb  Nb4  1  0.72160500  0.40375600  0.32422600  1
  Nb  Nb5  1  0.77839500  0.90375600  0.67577400  1
  Nb  Nb6  1  0.86751850  0.54581450  0.10916400  1
  Nb  Nb7  1  0.92746450  0.02448050  0.46920700  1
  Nb  Nb8  1  0.07253550  0.02448050  0.53079300  1
  Nb  Nb9  1  0.13248150  0.54581450  0.89083600  1
  Nb  Nb10  1  0.22160500  0.90375600  0.32422600  1
  Nb  Nb11  1  0.27839500  0.40375600  0.67577400  1
  Nb  Nb12  1  0.36751850  0.04581450  0.10916400  1
  Nb  Nb13  1  0.42746450  0.52448050  0.46920700  1
  O  O14  1  0.51395400  0.51551400  0.32527500  1
  O  O15  1  0.57885550  0.02440750  0.61352800  1
  O  O16  1  0.55596200  0.00227100  0.01976100  1
  O  O17  1  0.60729000  0.53014400  0.82688600  1
  O  O18  1  0.64077800  0.49651000  0.41985700  1
  O  O19  1  0.70517250  0.96169850  0.78633200  1
  O  O20  1  0.67607950  0.21469350  0.10831200  1
  O  O21  1  0.73401400  0.91667600  0.40467200  1
  O  O22  1  0.76598600  0.41667600  0.59532800  1
  O  O23  1  0.82392050  0.71469350  0.89168800  1
  O  O24  1  0.79482750  0.46169850  0.21366800  1
  O  O25  1  0.85922200  0.99651000  0.58014300  1
  O  O26  1  0.89271000  0.03014400  0.17311400  1
  O  O27  1  0.94403800  0.50227100  0.98023900  1
  O  O28  1  0.92114450  0.52440750  0.38647200  1
  O  O29  1  0.98604600  0.01551400  0.67472500  1
  O  O30  1  0.01395400  0.01551400  0.32527500  1
  O  O31  1  0.07885550  0.52440750  0.61352800  1
  O  O32  1  0.05596200  0.50227100  0.01976100  1
  O  O33  1  0.10729000  0.03014400  0.82688600  1
  O  O34  1  0.14077800  0.99651000  0.41985700  1
  O  O35  1  0.20517250  0.46169850  0.78633200  1
  O  O36  1  0.17607950  0.71469350  0.10831200  1
  O  O37  1  0.23401400  0.41667600  0.40467200  1
  O  O38  1  0.26598600  0.91667600  0.59532800  1
  O  O39  1  0.32392050  0.21469350  0.89168800  1
  O  O40  1  0.29482750  0.96169850  0.21366800  1
  O  O41  1  0.35922200  0.49651000  0.58014300  1
  O  O42  1  0.39271000  0.53014400  0.17311400  1
  O  O43  1  0.44403800  0.00227100  0.98023900  1
  O  O44  1  0.42114450  0.02440750  0.38647200  1
  O  O45  1  0.48604600  0.51551400  0.67472500  1
