# generated using pymatgen
data_Li2NiP2O7
_symmetry_space_group_name_H-M   'P 1'
_cell_length_a   5.11376984
_cell_length_b   7.02376725
_cell_length_c   8.70067879
_cell_angle_alpha   101.48095689
_cell_angle_beta   106.71754894
_cell_angle_gamma   109.75863897
_symmetry_Int_Tables_number   1
_chemical_formula_structural   Li2NiP2O7
_chemical_formula_sum   'Li4 Ni2 P4 O14'
_cell_volume   266.02737858
_cell_formula_units_Z   2
loop_
 _symmetry_equiv_pos_site_id
 _symmetry_equiv_pos_as_xyz
  1  'x, y, z'
loop_
 _atom_site_type_symbol
 _atom_site_label
 _atom_site_symmetry_multiplicity
 _atom_site_fract_x
 _atom_site_fract_y
 _atom_site_fract_z
 _atom_site_occupancy
  Li  Li0  1  0.91441550  0.68899350  0.00820100  1
  Li  Li1  1  0.08558450  0.31100650  0.99179900  1
  Li  Li2  1  0.43939150  0.11494550  0.75513200  1
  Li  Li3  1  0.56060850  0.88505450  0.24486800  1
  Ni  Ni4  1  0.18601950  0.17518750  0.33287200  1
  Ni  Ni5  1  0.81398050  0.82481250  0.66712800  1
  P  P6  1  0.15807450  0.74754550  0.39653150  1
  P  P7  1  0.84192550  0.25245450  0.60346850  1
  P  P8  1  0.67603500  0.30530000  0.14297400  1
  P  P9  1  0.32396500  0.69470000  0.85702600  1
  O  O10  1  0.46325450  0.73478250  0.44252900  1
  O  O11  1  0.53674550  0.26521750  0.55747100  1
  O  O12  1  0.10708000  0.85334700  0.54743500  1
  O  O13  1  0.89292000  0.14665300  0.45256500  1
  O  O14  1  0.11831700  0.85672100  0.25702800  1
  O  O15  1  0.88168300  0.14327900  0.74297200  1
  O  O16  1  0.62762900  0.75218400  0.83892850  1
  O  O17  1  0.37237100  0.24781600  0.16107150  1
  O  O18  1  0.68650550  0.37480750  0.98782650  1
  O  O19  1  0.31349450  0.62519250  0.01217350  1
  O  O20  1  0.90470300  0.50687600  0.31482100  1
  O  O21  1  0.09529700  0.49312400  0.68517900  1
  O  O22  1  0.20258400  0.86677600  0.85356000  1
  O  O23  1  0.79741600  0.13322400  0.14644000  1
