# generated using pymatgen
data_Mn2(SO4)3
_symmetry_space_group_name_H-M   'P 1'
_cell_length_a   13.14592800
_cell_length_b   8.31689400
_cell_length_c   9.19454436
_cell_angle_alpha   90.00000000
_cell_angle_beta   119.49544463
_cell_angle_gamma   90.00000000
_symmetry_Int_Tables_number   1
_chemical_formula_structural   Mn2(SO4)3
_chemical_formula_sum   'Mn8 S12 O48'
_cell_volume   874.98163487
_cell_formula_units_Z   4
loop_
 _symmetry_equiv_pos_site_id
 _symmetry_equiv_pos_as_xyz
  1  'x, y, z'
loop_
 _atom_site_type_symbol
 _atom_site_label
 _atom_site_symmetry_multiplicity
 _atom_site_fract_x
 _atom_site_fract_y
 _atom_site_fract_z
 _atom_site_occupancy
  Mn  Mn0  1  0.11894950  0.75099250  0.53124300  1
  Mn  Mn1  1  0.11894950  0.24900750  0.03124300  1
  Mn  Mn2  1  0.88105050  0.75099250  0.96875700  1
  Mn  Mn3  1  0.88105050  0.24900750  0.46875700  1
  Mn  Mn4  1  0.61894950  0.25099250  0.53124300  1
  Mn  Mn5  1  0.61894950  0.74900750  0.03124300  1
  Mn  Mn6  1  0.38105050  0.25099250  0.96875700  1
  Mn  Mn7  1  0.38105050  0.74900750  0.46875700  1
  S  S8  1  0.14666650  0.39081750  0.66833000  1
  S  S9  1  0.14666650  0.60918250  0.16833000  1
  S  S10  1  0.00000000  0.96202900  0.75000000  1
  S  S11  1  0.00000000  0.03797100  0.25000000  1
  S  S12  1  0.85333350  0.39081750  0.83167000  1
  S  S13  1  0.85333350  0.60918250  0.33167000  1
  S  S14  1  0.64666650  0.89081750  0.66833000  1
  S  S15  1  0.64666650  0.10918250  0.16833000  1
  S  S16  1  0.50000000  0.46202900  0.75000000  1
  S  S17  1  0.50000000  0.53797100  0.25000000  1
  S  S18  1  0.35333350  0.89081750  0.83167000  1
  S  S19  1  0.35333350  0.10918250  0.33167000  1
  O  O20  1  0.40727800  0.56570400  0.61714500  1
  O  O21  1  0.40727800  0.43429600  0.11714500  1
  O  O22  1  0.17706900  0.30991100  0.55844600  1
  O  O23  1  0.17191000  0.56885700  0.68669800  1
  O  O24  1  0.21420500  0.33255100  0.84942800  1
  O  O25  1  0.17706900  0.69008900  0.05844600  1
  O  O26  1  0.05806750  0.86536350  0.68001000  1
  O  O27  1  0.02024550  0.37191850  0.62273100  1
  O  O28  1  0.17191000  0.43114300  0.18669800  1
  O  O29  1  0.21420500  0.66744900  0.34942800  1
  O  O30  1  0.05806750  0.13463650  0.18001000  1
  O  O31  1  0.97975450  0.37191850  0.87726900  1
  O  O32  1  0.02024550  0.62808150  0.12273100  1
  O  O33  1  0.94193250  0.86536350  0.81999000  1
  O  O34  1  0.78579500  0.33255100  0.65057200  1
  O  O35  1  0.82809000  0.56885700  0.81330200  1
  O  O36  1  0.97975450  0.62808150  0.37726900  1
  O  O37  1  0.94193250  0.13463650  0.31999000  1
  O  O38  1  0.82293100  0.30991100  0.94155400  1
  O  O39  1  0.78579500  0.66744900  0.15057200  1
  O  O40  1  0.82809000  0.43114300  0.31330200  1
  O  O41  1  0.82293100  0.69008900  0.44155400  1
  O  O42  1  0.59272200  0.56570400  0.88285500  1
  O  O43  1  0.59272200  0.43429600  0.38285500  1
  O  O44  1  0.90727800  0.06570400  0.61714500  1
  O  O45  1  0.90727800  0.93429600  0.11714500  1
  O  O46  1  0.67706900  0.80991100  0.55844600  1
  O  O47  1  0.67191000  0.06885700  0.68669800  1
  O  O48  1  0.71420500  0.83255100  0.84942800  1
  O  O49  1  0.67706900  0.19008900  0.05844600  1
  O  O50  1  0.55806750  0.36536350  0.68001000  1
  O  O51  1  0.52024550  0.87191850  0.62273100  1
  O  O52  1  0.67191000  0.93114300  0.18669800  1
  O  O53  1  0.71420500  0.16744900  0.34942800  1
  O  O54  1  0.55806750  0.63463650  0.18001000  1
  O  O55  1  0.47975450  0.87191850  0.87726900  1
  O  O56  1  0.52024550  0.12808150  0.12273100  1
  O  O57  1  0.44193250  0.36536350  0.81999000  1
  O  O58  1  0.28579500  0.83255100  0.65057200  1
  O  O59  1  0.32809000  0.06885700  0.81330200  1
  O  O60  1  0.47975450  0.12808150  0.37726900  1
  O  O61  1  0.44193250  0.63463650  0.31999000  1
  O  O62  1  0.32293100  0.80991100  0.94155400  1
  O  O63  1  0.28579500  0.16744900  0.15057200  1
  O  O64  1  0.32809000  0.93114300  0.31330200  1
  O  O65  1  0.32293100  0.19008900  0.44155400  1
  O  O66  1  0.09272200  0.06570400  0.88285500  1
  O  O67  1  0.09272200  0.93429600  0.38285500  1
