# generated using pymatgen
data_Mn2F7
_symmetry_space_group_name_H-M   'P 1'
_cell_length_a   5.22541200
_cell_length_b   9.95438800
_cell_length_c   9.98667708
_cell_angle_alpha   90.00000000
_cell_angle_beta   102.79709181
_cell_angle_gamma   90.00000000
_symmetry_Int_Tables_number   1
_chemical_formula_structural   Mn2F7
_chemical_formula_sum   'Mn8 F28'
_cell_volume   506.56158880
_cell_formula_units_Z   4
loop_
 _symmetry_equiv_pos_site_id
 _symmetry_equiv_pos_as_xyz
  1  'x, y, z'
loop_
 _atom_site_type_symbol
 _atom_site_label
 _atom_site_symmetry_multiplicity
 _atom_site_fract_x
 _atom_site_fract_y
 _atom_site_fract_z
 _atom_site_occupancy
  Mn  Mn0  1  0.78507850  0.96542050  0.57435100  1
  Mn  Mn1  1  0.21492150  0.96542050  0.92564900  1
  Mn  Mn2  1  0.28507850  0.53457950  0.07435100  1
  Mn  Mn3  1  0.71492150  0.53457950  0.42564900  1
  Mn  Mn4  1  0.28507850  0.46542050  0.57435100  1
  Mn  Mn5  1  0.71492150  0.46542050  0.92564900  1
  Mn  Mn6  1  0.78507850  0.03457950  0.07435100  1
  Mn  Mn7  1  0.21492150  0.03457950  0.42564900  1
  F  F8  1  0.51097650  0.93527250  0.39797700  1
  F  F9  1  0.50000000  0.51838200  0.75000000  1
  F  F10  1  0.91451000  0.88609200  0.98255800  1
  F  F11  1  0.48902350  0.93527250  0.10202300  1
  F  F12  1  0.20070700  0.68536000  0.14536200  1
  F  F13  1  0.70070700  0.81464000  0.64536200  1
  F  F14  1  0.41451000  0.61390800  0.48255800  1
  F  F15  1  0.08549000  0.88609200  0.51744200  1
  F  F16  1  0.79929300  0.68536000  0.35463800  1
  F  F17  1  0.29929300  0.81464000  0.85463800  1
  F  F18  1  0.01097650  0.56472750  0.89797700  1
  F  F19  1  0.58549000  0.61390800  0.01744200  1
  F  F20  1  0.00000000  0.98161800  0.25000000  1
  F  F21  1  0.98902350  0.56472750  0.60202300  1
  F  F22  1  0.01097650  0.43527250  0.39797700  1
  F  F23  1  0.00000000  0.01838200  0.75000000  1
  F  F24  1  0.41451000  0.38609200  0.98255800  1
  F  F25  1  0.98902350  0.43527250  0.10202300  1
  F  F26  1  0.70070700  0.18536000  0.14536200  1
  F  F27  1  0.20070700  0.31464000  0.64536200  1
  F  F28  1  0.91451000  0.11390800  0.48255800  1
  F  F29  1  0.58549000  0.38609200  0.51744200  1
  F  F30  1  0.29929300  0.18536000  0.35463800  1
  F  F31  1  0.79929300  0.31464000  0.85463800  1
  F  F32  1  0.51097650  0.06472750  0.89797700  1
  F  F33  1  0.08549000  0.11390800  0.01744200  1
  F  F34  1  0.50000000  0.48161800  0.25000000  1
  F  F35  1  0.48902350  0.06472750  0.60202300  1
