# generated using pymatgen
data_RbMn4O8
_symmetry_space_group_name_H-M   'P 1'
_cell_length_a   14.06948600
_cell_length_b   3.00496000
_cell_length_c   9.96948831
_cell_angle_alpha   90.00000000
_cell_angle_beta   134.22867126
_cell_angle_gamma   90.00000000
_symmetry_Int_Tables_number   1
_chemical_formula_structural   RbMn4O8
_chemical_formula_sum   'Rb2 Mn8 O16'
_cell_volume   302.02532277
_cell_formula_units_Z   2
loop_
 _symmetry_equiv_pos_site_id
 _symmetry_equiv_pos_as_xyz
  1  'x, y, z'
loop_
 _atom_site_type_symbol
 _atom_site_label
 _atom_site_symmetry_multiplicity
 _atom_site_fract_x
 _atom_site_fract_y
 _atom_site_fract_z
 _atom_site_occupancy
  Rb  Rb0  1  0.00000000  0.50000000  0.00000000  1
  Rb  Rb1  1  0.50000000  0.00000000  0.00000000  1
  Mn  Mn2  1  0.64996900  0.00000000  0.48338700  1
  Mn  Mn3  1  0.33726000  0.50000000  0.18451000  1
  Mn  Mn4  1  0.66274000  0.50000000  0.81549000  1
  Mn  Mn5  1  0.35003100  0.00000000  0.51661300  1
  Mn  Mn6  1  0.14996900  0.50000000  0.48338700  1
  Mn  Mn7  1  0.83726000  0.00000000  0.18451000  1
  Mn  Mn8  1  0.16274000  0.00000000  0.81549000  1
  Mn  Mn9  1  0.85003100  0.50000000  0.51661300  1
  O  O10  1  0.45806600  0.00000000  0.28159400  1
  O  O11  1  0.34136000  0.50000000  0.64066000  1
  O  O12  1  0.34246700  0.50000000  0.38406100  1
  O  O13  1  0.79162500  0.00000000  0.94262100  1
  O  O14  1  0.20837500  0.00000000  0.05737900  1
  O  O15  1  0.65753300  0.50000000  0.61593900  1
  O  O16  1  0.65864000  0.50000000  0.35934000  1
  O  O17  1  0.54193400  0.00000000  0.71840600  1
  O  O18  1  0.95806600  0.50000000  0.28159400  1
  O  O19  1  0.84136000  0.00000000  0.64066000  1
  O  O20  1  0.84246700  0.00000000  0.38406100  1
  O  O21  1  0.29162500  0.50000000  0.94262100  1
  O  O22  1  0.70837500  0.50000000  0.05737900  1
  O  O23  1  0.15753300  0.00000000  0.61593900  1
  O  O24  1  0.15864000  0.00000000  0.35934000  1
  O  O25  1  0.04193400  0.50000000  0.71840600  1
