# generated using pymatgen
data_Fe2O3F
_symmetry_space_group_name_H-M   'P 1'
_cell_length_a   2.99982100
_cell_length_b   4.68685501
_cell_length_c   9.40899204
_cell_angle_alpha   90.00000000
_cell_angle_beta   90.00000000
_cell_angle_gamma   90.00000000
_symmetry_Int_Tables_number   1
_chemical_formula_structural   Fe2O3F
_chemical_formula_sum   'Fe4 O6 F2'
_cell_volume   132.28785073
_cell_formula_units_Z   2
loop_
 _symmetry_equiv_pos_site_id
 _symmetry_equiv_pos_as_xyz
  1  'x, y, z'
loop_
 _atom_site_type_symbol
 _atom_site_label
 _atom_site_symmetry_multiplicity
 _atom_site_fract_x
 _atom_site_fract_y
 _atom_site_fract_z
 _atom_site_occupancy
  Fe  Fe0  1  0.00000000  0.46656200  0.12072900  1
  Fe  Fe1  1  0.00000000  0.53416400  0.61551700  1
  Fe  Fe2  1  0.50000000  0.03416400  0.38448300  1
  Fe  Fe3  1  0.50000000  0.96656200  0.87927100  1
  O  O4  1  0.50000000  0.71657800  0.52314200  1
  O  O5  1  0.50000000  0.66168500  0.02894200  1
  O  O6  1  0.00000000  0.80717400  0.77662800  1
  O  O7  1  0.00000000  0.16168500  0.97105800  1
  O  O8  1  0.00000000  0.21657800  0.47685800  1
  O  O9  1  0.50000000  0.30717400  0.22337200  1
  F  F10  1  0.00000000  0.81432200  0.27748000  1
  F  F11  1  0.50000000  0.31432200  0.72252000  1
