# generated using pymatgen
data_Li24TiCr11O36
_symmetry_space_group_name_H-M   'P 1'
_cell_length_a   15.16606000
_cell_length_b   8.71535600
_cell_length_c   9.75834013
_cell_angle_alpha   90.00000000
_cell_angle_beta   99.44857686
_cell_angle_gamma   90.00000000
_symmetry_Int_Tables_number   1
_chemical_formula_structural   Li24TiCr11O36
_chemical_formula_sum   'Li48 Ti2 Cr22 O72'
_cell_volume   1272.33534875
_cell_formula_units_Z   2
loop_
 _symmetry_equiv_pos_site_id
 _symmetry_equiv_pos_as_xyz
  1  'x, y, z'
loop_
 _atom_site_type_symbol
 _atom_site_label
 _atom_site_symmetry_multiplicity
 _atom_site_fract_x
 _atom_site_fract_y
 _atom_site_fract_z
 _atom_site_occupancy
  Li  Li0  1  0.91772500  0.08925500  0.74933300  1
  Li  Li1  1  0.00000000  0.25007900  0.00000000  1
  Li  Li2  1  0.91620400  0.24823500  0.24983700  1
  Li  Li3  1  0.83380800  0.24966400  0.50002200  1
  Li  Li4  1  0.91538750  0.41183750  0.74978100  1
  Li  Li5  1  0.74936850  0.25001050  0.75027100  1
  Li  Li6  1  0.75161150  0.41195850  0.25061600  1
  Li  Li7  1  0.91544300  0.59041500  0.24951500  1
  Li  Li8  1  0.00000000  0.75049700  0.50000000  1
  Li  Li9  1  0.74976650  0.58806750  0.75139300  1
  Li  Li10  1  0.91744750  0.74809550  0.74921500  1
  Li  Li11  1  0.83298650  0.74993650  0.99974100  1
  Li  Li12  1  0.91626450  0.91089050  0.25051700  1
  Li  Li13  1  0.75063150  0.75001050  0.24972900  1
  Li  Li14  1  0.58227500  0.58925500  0.25066700  1
  Li  Li15  1  0.66619200  0.74966400  0.49997800  1
  Li  Li16  1  0.74838850  0.91195850  0.74938400  1
  Li  Li17  1  0.58379600  0.74823500  0.75016300  1
  Li  Li18  1  0.58461250  0.91183750  0.25021900  1
  Li  Li19  1  0.75023350  0.08806750  0.24860700  1
  Li  Li20  1  0.58455700  0.09041500  0.75048500  1
  Li  Li21  1  0.66701350  0.24993650  0.00025900  1
  Li  Li22  1  0.58255250  0.24809550  0.25078500  1
  Li  Li23  1  0.58373550  0.41089050  0.74948300  1
  Li  Li24  1  0.41772500  0.58925500  0.74933300  1
  Li  Li25  1  0.50000000  0.75007900  0.00000000  1
  Li  Li26  1  0.41620400  0.74823500  0.24983700  1
  Li  Li27  1  0.33380800  0.74966400  0.50002200  1
  Li  Li28  1  0.41538750  0.91183750  0.74978100  1
  Li  Li29  1  0.24936850  0.75001050  0.75027100  1
  Li  Li30  1  0.25161150  0.91195850  0.25061600  1
  Li  Li31  1  0.41544300  0.09041500  0.24951500  1
  Li  Li32  1  0.50000000  0.25049700  0.50000000  1
  Li  Li33  1  0.24976650  0.08806750  0.75139300  1
  Li  Li34  1  0.41744750  0.24809550  0.74921500  1
  Li  Li35  1  0.33298650  0.24993650  0.99974100  1
  Li  Li36  1  0.41626450  0.41089050  0.25051700  1
  Li  Li37  1  0.25063150  0.25001050  0.24972900  1
  Li  Li38  1  0.08227500  0.08925500  0.25066700  1
  Li  Li39  1  0.16619200  0.24966400  0.49997800  1
  Li  Li40  1  0.24838850  0.41195850  0.74938400  1
  Li  Li41  1  0.08379600  0.24823500  0.75016300  1
  Li  Li42  1  0.08461250  0.41183750  0.25021900  1
  Li  Li43  1  0.25023350  0.58806750  0.24860700  1
  Li  Li44  1  0.08455700  0.59041500  0.75048500  1
  Li  Li45  1  0.16701350  0.74993650  0.00025900  1
  Li  Li46  1  0.08255250  0.74809550  0.25078500  1
  Li  Li47  1  0.08373550  0.91089050  0.74948300  1
  Ti  Ti48  1  0.00000000  0.41732000  0.50000000  1
  Ti  Ti49  1  0.50000000  0.91732000  0.50000000  1
  Cr  Cr50  1  0.00000000  0.07804600  0.50000000  1
  Cr  Cr51  1  0.00000000  0.57590700  0.00000000  1
  Cr  Cr52  1  0.83081050  0.42101550  0.00136400  1
  Cr  Cr53  1  0.83267650  0.58576350  0.49848900  1
  Cr  Cr54  1  0.66913450  0.41972050  0.50528300  1
  Cr  Cr55  1  0.00000000  0.91091000  0.00000000  1
  Cr  Cr56  1  0.66337050  0.58428850  0.99938800  1
  Cr  Cr57  1  0.83086550  0.91972050  0.49471700  1
  Cr  Cr58  1  0.83662950  0.08428850  0.00061200  1
  Cr  Cr59  1  0.66918950  0.92101550  0.99863600  1
  Cr  Cr60  1  0.66732350  0.08576350  0.50151100  1
  Cr  Cr61  1  0.50000000  0.57804600  0.50000000  1
  Cr  Cr62  1  0.50000000  0.07590700  0.00000000  1
  Cr  Cr63  1  0.33081050  0.92101550  0.00136400  1
  Cr  Cr64  1  0.33267650  0.08576350  0.49848900  1
  Cr  Cr65  1  0.16913450  0.91972050  0.50528300  1
  Cr  Cr66  1  0.50000000  0.41091000  0.00000000  1
  Cr  Cr67  1  0.16337050  0.08428850  0.99938800  1
  Cr  Cr68  1  0.33086550  0.41972050  0.49471700  1
  Cr  Cr69  1  0.33662950  0.58428850  0.00061200  1
  Cr  Cr70  1  0.16918950  0.42101550  0.99863600  1
  Cr  Cr71  1  0.16732350  0.58576350  0.50151100  1
  O  O72  1  0.95088800  0.07161800  0.11196300  1
  O  O73  1  0.96536250  0.24795350  0.61536500  1
  O  O74  1  0.86681350  0.24769150  0.88651700  1
  O  O75  1  0.79911300  0.25374000  0.11524300  1
  O  O76  1  0.95424450  0.43179750  0.11315700  1
  O  O77  1  0.87926200  0.42878800  0.38720900  1
  O  O78  1  0.87875550  0.56628050  0.88747000  1
  O  O79  1  0.95093000  0.57266400  0.61266900  1
  O  O80  1  0.71309650  0.43191450  0.88889500  1
  O  O81  1  0.78517550  0.42632050  0.61319300  1
  O  O82  1  0.96571600  0.74802300  0.11361800  1
  O  O83  1  0.78544800  0.57035300  0.11212400  1
  O  O84  1  0.61601950  0.42879350  0.11302300  1
  O  O85  1  0.71675350  0.57171850  0.38876000  1
  O  O86  1  0.86906750  0.75106150  0.38276100  1
  O  O87  1  0.54911200  0.57161800  0.88803700  1
  O  O88  1  0.80001800  0.75019700  0.61214500  1
  O  O89  1  0.62115000  0.56887900  0.61362800  1
  O  O90  1  0.88398050  0.92879350  0.88697700  1
  O  O91  1  0.70088700  0.75374000  0.88475700  1
  O  O92  1  0.95318700  0.93167400  0.61095000  1
  O  O93  1  0.63318650  0.74769150  0.11348300  1
  O  O94  1  0.78690350  0.93191450  0.11110500  1
  O  O95  1  0.87885000  0.06887900  0.38637200  1
  O  O96  1  0.71482450  0.92632050  0.38680700  1
  O  O97  1  0.53463750  0.74795350  0.38463500  1
  O  O98  1  0.71455200  0.07035300  0.88787600  1
  O  O99  1  0.78324650  0.07171850  0.61124000  1
  O  O100  1  0.54575550  0.93179750  0.88684300  1
  O  O101  1  0.62073800  0.92878800  0.61279100  1
  O  O102  1  0.62124450  0.06628050  0.11253000  1
  O  O103  1  0.54907000  0.07266400  0.38733100  1
  O  O104  1  0.69998200  0.25019700  0.38785500  1
  O  O105  1  0.63093250  0.25106150  0.61723900  1
  O  O106  1  0.53428400  0.24802300  0.88638200  1
  O  O107  1  0.54681300  0.43167400  0.38905000  1
  O  O108  1  0.45088800  0.57161800  0.11196300  1
  O  O109  1  0.46536250  0.74795350  0.61536500  1
  O  O110  1  0.36681350  0.74769150  0.88651700  1
  O  O111  1  0.29911300  0.75374000  0.11524300  1
  O  O112  1  0.45424450  0.93179750  0.11315700  1
  O  O113  1  0.37926200  0.92878800  0.38720900  1
  O  O114  1  0.37875550  0.06628050  0.88747000  1
  O  O115  1  0.45093000  0.07266400  0.61266900  1
  O  O116  1  0.21309650  0.93191450  0.88889500  1
  O  O117  1  0.28517550  0.92632050  0.61319300  1
  O  O118  1  0.46571600  0.24802300  0.11361800  1
  O  O119  1  0.28544800  0.07035300  0.11212400  1
  O  O120  1  0.11601950  0.92879350  0.11302300  1
  O  O121  1  0.21675350  0.07171850  0.38876000  1
  O  O122  1  0.36906750  0.25106150  0.38276100  1
  O  O123  1  0.04911200  0.07161800  0.88803700  1
  O  O124  1  0.30001800  0.25019700  0.61214500  1
  O  O125  1  0.12115000  0.06887900  0.61362800  1
  O  O126  1  0.38398050  0.42879350  0.88697700  1
  O  O127  1  0.20088700  0.25374000  0.88475700  1
  O  O128  1  0.45318700  0.43167400  0.61095000  1
  O  O129  1  0.13318650  0.24769150  0.11348300  1
  O  O130  1  0.28690350  0.43191450  0.11110500  1
  O  O131  1  0.37885000  0.56887900  0.38637200  1
  O  O132  1  0.21482450  0.42632050  0.38680700  1
  O  O133  1  0.03463750  0.24795350  0.38463500  1
  O  O134  1  0.21455200  0.57035300  0.88787600  1
  O  O135  1  0.28324650  0.57171850  0.61124000  1
  O  O136  1  0.04575550  0.43179750  0.88684300  1
  O  O137  1  0.12073800  0.42878800  0.61279100  1
  O  O138  1  0.12124450  0.56628050  0.11253000  1
  O  O139  1  0.04907000  0.57266400  0.38733100  1
  O  O140  1  0.19998200  0.75019700  0.38785500  1
  O  O141  1  0.13093250  0.75106150  0.61723900  1
  O  O142  1  0.03428400  0.74802300  0.88638200  1
  O  O143  1  0.04681300  0.93167400  0.38905000  1
