# generated using pymatgen
data_TiMn5O12
_symmetry_space_group_name_H-M   'P 1'
_cell_length_a   5.07684400
_cell_length_b   8.80713800
_cell_length_c   9.71485909
_cell_angle_alpha   90.00000000
_cell_angle_beta   90.00786170
_cell_angle_gamma   90.00000000
_symmetry_Int_Tables_number   1
_chemical_formula_structural   TiMn5O12
_chemical_formula_sum   'Ti2 Mn10 O24'
_cell_volume   434.37529994
_cell_formula_units_Z   2
loop_
 _symmetry_equiv_pos_site_id
 _symmetry_equiv_pos_as_xyz
  1  'x, y, z'
loop_
 _atom_site_type_symbol
 _atom_site_label
 _atom_site_symmetry_multiplicity
 _atom_site_fract_x
 _atom_site_fract_y
 _atom_site_fract_z
 _atom_site_occupancy
  Ti  Ti0  1  0.00000000  0.00000000  0.00000000  1
  Ti  Ti1  1  0.50000000  0.50000000  0.00000000  1
  Mn  Mn2  1  0.00000000  0.16671200  0.50000000  1
  Mn  Mn3  1  0.50000000  0.16667200  0.00000000  1
  Mn  Mn4  1  0.00000000  0.33332800  0.00000000  1
  Mn  Mn5  1  0.50000000  0.33328800  0.50000000  1
  Mn  Mn6  1  0.50000000  0.00000000  0.50000000  1
  Mn  Mn7  1  0.50000000  0.66671200  0.50000000  1
  Mn  Mn8  1  0.00000000  0.66667200  0.00000000  1
  Mn  Mn9  1  0.50000000  0.83332800  0.00000000  1
  Mn  Mn10  1  0.00000000  0.83328800  0.50000000  1
  Mn  Mn11  1  0.00000000  0.50000000  0.50000000  1
  O  O12  1  0.16964850  0.16973750  0.10007700  1
  O  O13  1  0.83035150  0.16973750  0.89992300  1
  O  O14  1  0.16658300  0.33338600  0.40168400  1
  O  O15  1  0.66658300  0.16661400  0.40168400  1
  O  O16  1  0.83341700  0.33338600  0.59831600  1
  O  O17  1  0.83359000  0.00000000  0.59847200  1
  O  O18  1  0.33341700  0.16661400  0.59831600  1
  O  O19  1  0.66964850  0.33026250  0.10007700  1
  O  O20  1  0.66043300  0.00000000  0.10013500  1
  O  O21  1  0.33035150  0.33026250  0.89992300  1
  O  O22  1  0.33956700  0.00000000  0.89986500  1
  O  O23  1  0.16641000  0.00000000  0.40152800  1
  O  O24  1  0.66964850  0.66973750  0.10007700  1
  O  O25  1  0.33035150  0.66973750  0.89992300  1
  O  O26  1  0.66658300  0.83338600  0.40168400  1
  O  O27  1  0.16658300  0.66661400  0.40168400  1
  O  O28  1  0.33341700  0.83338600  0.59831600  1
  O  O29  1  0.33359000  0.50000000  0.59847200  1
  O  O30  1  0.83341700  0.66661400  0.59831600  1
  O  O31  1  0.16964850  0.83026250  0.10007700  1
  O  O32  1  0.16043300  0.50000000  0.10013500  1
  O  O33  1  0.83035150  0.83026250  0.89992300  1
  O  O34  1  0.83956700  0.50000000  0.89986500  1
  O  O35  1  0.66641000  0.50000000  0.40152800  1
