# generated using pymatgen
data_ZrNbO4
_symmetry_space_group_name_H-M   'P 1'
_cell_length_a   6.95799800
_cell_length_b   10.64900800
_cell_length_c   5.14539008
_cell_angle_alpha   90.00000000
_cell_angle_beta   132.46030353
_cell_angle_gamma   90.00000000
_symmetry_Int_Tables_number   1
_chemical_formula_structural   ZrNbO4
_chemical_formula_sum   'Zr4 Nb4 O16'
_cell_volume   281.26660384
_cell_formula_units_Z   4
loop_
 _symmetry_equiv_pos_site_id
 _symmetry_equiv_pos_as_xyz
  1  'x, y, z'
loop_
 _atom_site_type_symbol
 _atom_site_label
 _atom_site_symmetry_multiplicity
 _atom_site_fract_x
 _atom_site_fract_y
 _atom_site_fract_z
 _atom_site_occupancy
  Zr  Zr0  1  0.00000000  0.36843900  0.25000000  1
  Zr  Zr1  1  0.50000000  0.13156100  0.75000000  1
  Zr  Zr2  1  0.50000000  0.86843900  0.25000000  1
  Zr  Zr3  1  0.00000000  0.63156100  0.75000000  1
  Nb  Nb4  1  0.50000000  0.39699800  0.25000000  1
  Nb  Nb5  1  0.00000000  0.10300200  0.75000000  1
  Nb  Nb6  1  0.00000000  0.89699800  0.25000000  1
  Nb  Nb7  1  0.50000000  0.60300200  0.75000000  1
  O  O8  1  0.76031050  0.46951250  0.74141100  1
  O  O9  1  0.26031050  0.03048750  0.24141100  1
  O  O10  1  0.16960450  0.21366850  0.64532400  1
  O  O11  1  0.66960450  0.28633150  0.14532400  1
  O  O12  1  0.83039550  0.21366850  0.85467600  1
  O  O13  1  0.33039550  0.28633150  0.35467600  1
  O  O14  1  0.23968950  0.46951250  0.75858900  1
  O  O15  1  0.73968950  0.03048750  0.25858900  1
  O  O16  1  0.26031050  0.96951250  0.74141100  1
  O  O17  1  0.76031050  0.53048750  0.24141100  1
  O  O18  1  0.66960450  0.71366850  0.64532400  1
  O  O19  1  0.16960450  0.78633150  0.14532400  1
  O  O20  1  0.33039550  0.71366850  0.85467600  1
  O  O21  1  0.83039550  0.78633150  0.35467600  1
  O  O22  1  0.73968950  0.96951250  0.75858900  1
  O  O23  1  0.23968950  0.53048750  0.25858900  1
