# generated using pymatgen
data_Li2MnSiCO7
_symmetry_space_group_name_H-M   'P 1'
_cell_length_a   5.06310722
_cell_length_b   6.31814501
_cell_length_c   8.43328217
_cell_angle_alpha   90.00000000
_cell_angle_beta   93.97194829
_cell_angle_gamma   90.00000000
_symmetry_Int_Tables_number   1
_chemical_formula_structural   Li2MnSiCO7
_chemical_formula_sum   'Li4 Mn2 Si2 C2 O14'
_cell_volume   269.12804145
_cell_formula_units_Z   2
loop_
 _symmetry_equiv_pos_site_id
 _symmetry_equiv_pos_as_xyz
  1  'x, y, z'
loop_
 _atom_site_type_symbol
 _atom_site_label
 _atom_site_symmetry_multiplicity
 _atom_site_fract_x
 _atom_site_fract_y
 _atom_site_fract_z
 _atom_site_occupancy
  Li  Li0  1  0.28351650  0.50436150  0.23588575  1
  Li  Li1  1  0.28351650  0.99563850  0.23588575  1
  Li  Li2  1  0.71648350  0.49563850  0.76411425  1
  Li  Li3  1  0.71648350  0.00436150  0.76411425  1
  Mn  Mn4  1  0.69936800  0.25000000  0.34016575  1
  Mn  Mn5  1  0.30063200  0.75000000  0.65983425  1
  Si  Si6  1  0.78193750  0.75000000  0.42497075  1
  Si  Si7  1  0.21806250  0.25000000  0.57502925  1
  C  C8  1  0.76936900  0.25000000  0.05580825  1
  C  C9  1  0.23063100  0.75000000  0.94419175  1
  O  O10  1  0.19637200  0.75000000  0.09029775  1
  O  O11  1  0.80362800  0.25000000  0.90970225  1
  O  O12  1  0.53562550  0.25000000  0.11434075  1
  O  O13  1  0.46437450  0.75000000  0.88565925  1
  O  O14  1  0.96441700  0.25000000  0.16833825  1
  O  O15  1  0.03558300  0.75000000  0.83166175  1
  O  O16  1  0.34245350  0.25000000  0.39945775  1
  O  O17  1  0.65754650  0.75000000  0.60054225  1
  O  O18  1  0.10823300  0.75000000  0.45765725  1
  O  O19  1  0.89176700  0.25000000  0.54234275  1
  O  O20  1  0.67756950  0.95294350  0.31850775  1
  O  O21  1  0.67756950  0.54705650  0.31850775  1
  O  O22  1  0.32243050  0.45294350  0.68149225  1
  O  O23  1  0.32243050  0.04705650  0.68149225  1
