# generated using pymatgen
data_Li2Ni2SnO6
_symmetry_space_group_name_H-M   'P 1'
_cell_length_a   5.31793473
_cell_length_b   8.82637399
_cell_length_c   10.12561600
_cell_angle_alpha   90.00000000
_cell_angle_beta   90.00000000
_cell_angle_gamma   90.00000000
_symmetry_Int_Tables_number   1
_chemical_formula_structural   Li2Ni2SnO6
_chemical_formula_sum   'Li8 Ni8 Sn4 O24'
_cell_volume   475.27698161
_cell_formula_units_Z   4
loop_
 _symmetry_equiv_pos_site_id
 _symmetry_equiv_pos_as_xyz
  1  'x, y, z'
loop_
 _atom_site_type_symbol
 _atom_site_label
 _atom_site_symmetry_multiplicity
 _atom_site_fract_x
 _atom_site_fract_y
 _atom_site_fract_z
 _atom_site_occupancy
  Li  Li0  1  0.39125700  0.25000000  0.75000000  1
  Li  Li1  1  0.60874300  0.25000000  0.25000000  1
  Li  Li2  1  0.39125700  0.75000000  0.75000000  1
  Li  Li3  1  0.60874300  0.75000000  0.25000000  1
  Li  Li4  1  0.89125700  0.75000000  0.75000000  1
  Li  Li5  1  0.10874300  0.75000000  0.25000000  1
  Li  Li6  1  0.89125700  0.25000000  0.75000000  1
  Li  Li7  1  0.10874300  0.25000000  0.25000000  1
  Ni  Ni8  1  0.50000000  0.16379600  0.50000000  1
  Ni  Ni9  1  0.50000000  0.33620400  0.00000000  1
  Ni  Ni10  1  0.50000000  0.66379600  0.00000000  1
  Ni  Ni11  1  0.50000000  0.83620400  0.50000000  1
  Ni  Ni12  1  0.00000000  0.66379600  0.50000000  1
  Ni  Ni13  1  0.00000000  0.83620400  0.00000000  1
  Ni  Ni14  1  0.00000000  0.16379600  0.00000000  1
  Ni  Ni15  1  0.00000000  0.33620400  0.50000000  1
  Sn  Sn16  1  0.50000000  0.00000000  0.00000000  1
  Sn  Sn17  1  0.50000000  0.50000000  0.50000000  1
  Sn  Sn18  1  0.00000000  0.50000000  0.00000000  1
  Sn  Sn19  1  0.00000000  0.00000000  0.50000000  1
  O  O20  1  0.35539800  0.18074150  0.10937100  1
  O  O21  1  0.64460200  0.81925850  0.89062900  1
  O  O22  1  0.35539800  0.31925850  0.39062900  1
  O  O23  1  0.64460200  0.31925850  0.60937100  1
  O  O24  1  0.14692250  0.50000000  0.59757400  1
  O  O25  1  0.35307750  0.50000000  0.09757400  1
  O  O26  1  0.64692250  0.50000000  0.90242600  1
  O  O27  1  0.64460200  0.18074150  0.89062900  1
  O  O28  1  0.85307750  0.50000000  0.40242600  1
  O  O29  1  0.35539800  0.68074150  0.39062900  1
  O  O30  1  0.64460200  0.68074150  0.60937100  1
  O  O31  1  0.35539800  0.81925850  0.10937100  1
  O  O32  1  0.85539800  0.68074150  0.10937100  1
  O  O33  1  0.14460200  0.31925850  0.89062900  1
  O  O34  1  0.85539800  0.81925850  0.39062900  1
  O  O35  1  0.14460200  0.81925850  0.60937100  1
  O  O36  1  0.64692250  0.00000000  0.59757400  1
  O  O37  1  0.85307750  0.00000000  0.09757400  1
  O  O38  1  0.14692250  0.00000000  0.90242600  1
  O  O39  1  0.14460200  0.68074150  0.89062900  1
  O  O40  1  0.35307750  0.00000000  0.40242600  1
  O  O41  1  0.85539800  0.18074150  0.39062900  1
  O  O42  1  0.14460200  0.18074150  0.60937100  1
  O  O43  1  0.85539800  0.31925850  0.10937100  1
