# generated using pymatgen
data_Li2MnV3O8
_symmetry_space_group_name_H-M   'P 1'
_cell_length_a   5.90641409
_cell_length_b   5.90641409
_cell_length_c   14.67823845
_cell_angle_alpha   90.00000000
_cell_angle_beta   90.00000000
_cell_angle_gamma   120.00000000
_symmetry_Int_Tables_number   1
_chemical_formula_structural   Li2MnV3O8
_chemical_formula_sum   'Li6 Mn3 V9 O24'
_cell_volume   443.45785692
_cell_formula_units_Z   3
loop_
 _symmetry_equiv_pos_site_id
 _symmetry_equiv_pos_as_xyz
  1  'x, y, z'
loop_
 _atom_site_type_symbol
 _atom_site_label
 _atom_site_symmetry_multiplicity
 _atom_site_fract_x
 _atom_site_fract_y
 _atom_site_fract_z
 _atom_site_occupancy
  Li  Li0  1  0.00000000  0.00000000  0.12765000  1
  Li  Li1  1  0.66666667  0.33333333  0.20568333  1
  Li  Li2  1  0.66666667  0.33333333  0.46098333  1
  Li  Li3  1  0.33333333  0.66666667  0.53901667  1
  Li  Li4  1  0.33333333  0.66666667  0.79431667  1
  Li  Li5  1  0.00000000  0.00000000  0.87235000  1
  Mn  Mn6  1  0.33333333  0.66666667  0.16666667  1
  Mn  Mn7  1  1.00000000  1.00000000  0.50000000  1
  Mn  Mn8  1  0.66666667  0.33333333  0.83333333  1
  V  V9  1  0.50000000  0.50000000  0.00000000  1
  V  V10  1  0.00000000  0.50000000  0.00000000  1
  V  V11  1  0.50000000  0.00000000  0.00000000  1
  V  V12  1  0.16666667  0.83333333  0.33333333  1
  V  V13  1  0.66666667  0.83333333  0.33333333  1
  V  V14  1  0.16666667  0.33333333  0.33333333  1
  V  V15  1  0.83333333  0.16666667  0.66666667  1
  V  V16  1  0.33333333  0.16666667  0.66666667  1
  V  V17  1  0.83333333  0.66666667  0.66666667  1
  O  O18  1  0.00000000  0.00000000  0.26353400  1
  O  O19  1  0.18437933  0.36875867  0.08268367  1
  O  O20  1  0.63124133  0.81562067  0.08268367  1
  O  O21  1  0.18437933  0.81562067  0.08268367  1
  O  O22  1  0.48228733  0.51771267  0.25064967  1
  O  O23  1  0.03542533  0.51771267  0.25064967  1
  O  O24  1  0.48228733  0.96457467  0.25064967  1
  O  O25  1  0.66666667  0.33333333  0.06979933  1
  O  O26  1  0.66666667  0.33333333  0.59686733  1
  O  O27  1  0.85104600  0.70209200  0.41601700  1
  O  O28  1  0.29790800  0.14895400  0.41601700  1
  O  O29  1  0.85104600  0.14895400  0.41601700  1
  O  O30  1  0.14895400  0.85104600  0.58398300  1
  O  O31  1  0.70209200  0.85104600  0.58398300  1
  O  O32  1  0.14895400  0.29790800  0.58398300  1
  O  O33  1  0.33333333  0.66666667  0.40313267  1
  O  O34  1  0.33333333  0.66666667  0.93020067  1
  O  O35  1  0.51771267  0.03542533  0.74935033  1
  O  O36  1  0.96457467  0.48228733  0.74935033  1
  O  O37  1  0.51771267  0.48228733  0.74935033  1
  O  O38  1  0.81562067  0.18437933  0.91731633  1
  O  O39  1  0.36875867  0.18437933  0.91731633  1
  O  O40  1  0.81562067  0.63124133  0.91731633  1
  O  O41  1  0.00000000  0.00000000  0.73646600  1
