# generated using pymatgen
data_Li3Co4NiO8
_symmetry_space_group_name_H-M   'P 1'
_cell_length_a   10.02136485
_cell_length_b   5.72794517
_cell_length_c   5.75061371
_cell_angle_alpha   90.00000000
_cell_angle_beta   124.33520986
_cell_angle_gamma   90.00000000
_symmetry_Int_Tables_number   1
_chemical_formula_structural   Li3Co4NiO8
_chemical_formula_sum   'Li6 Co8 Ni2 O16'
_cell_volume   272.57716441
_cell_formula_units_Z   2
loop_
 _symmetry_equiv_pos_site_id
 _symmetry_equiv_pos_as_xyz
  1  'x, y, z'
loop_
 _atom_site_type_symbol
 _atom_site_label
 _atom_site_symmetry_multiplicity
 _atom_site_fract_x
 _atom_site_fract_y
 _atom_site_fract_z
 _atom_site_occupancy
  Li  Li0  1  0.75000000  0.25000000  0.50000000  1
  Li  Li1  1  0.00000000  0.00000000  0.50000000  1
  Li  Li2  1  0.75000000  0.75000000  0.50000000  1
  Li  Li3  1  0.25000000  0.75000000  0.50000000  1
  Li  Li4  1  0.50000000  0.50000000  0.50000000  1
  Li  Li5  1  0.25000000  0.25000000  0.50000000  1
  Co  Co6  1  0.00000000  0.50000000  0.50000000  1
  Co  Co7  1  0.00000000  0.00000000  0.00000000  1
  Co  Co8  1  0.75000000  0.25000000  0.00000000  1
  Co  Co9  1  0.75000000  0.75000000  0.00000000  1
  Co  Co10  1  0.50000000  0.00000000  0.50000000  1
  Co  Co11  1  0.50000000  0.50000000  0.00000000  1
  Co  Co12  1  0.25000000  0.75000000  0.00000000  1
  Co  Co13  1  0.25000000  0.25000000  0.00000000  1
  Ni  Ni14  1  0.00000000  0.50000000  0.00000000  1
  Ni  Ni15  1  0.50000000  0.00000000  0.00000000  1
  O  O16  1  0.74645650  0.00000000  0.22566700  1
  O  O17  1  0.98558950  0.75845050  0.23026500  1
  O  O18  1  0.98558950  0.24154950  0.23026500  1
  O  O19  1  0.73823150  0.50000000  0.21526300  1
  O  O20  1  0.76176850  0.00000000  0.78473700  1
  O  O21  1  0.51441050  0.25845050  0.76973500  1
  O  O22  1  0.51441050  0.74154950  0.76973500  1
  O  O23  1  0.75354350  0.50000000  0.77433300  1
  O  O24  1  0.24645650  0.50000000  0.22566700  1
  O  O25  1  0.48558950  0.25845050  0.23026500  1
  O  O26  1  0.48558950  0.74154950  0.23026500  1
  O  O27  1  0.23823150  0.00000000  0.21526300  1
  O  O28  1  0.26176850  0.50000000  0.78473700  1
  O  O29  1  0.01441050  0.75845050  0.76973500  1
  O  O30  1  0.01441050  0.24154950  0.76973500  1
  O  O31  1  0.25354350  0.00000000  0.77433300  1
