# generated using pymatgen
data_Ba4IrO6
_symmetry_space_group_name_H-M   'P 1'
_cell_length_a   10.38635860
_cell_length_b   10.38635860
_cell_length_c   12.79267693
_cell_angle_alpha   90.00000000
_cell_angle_beta   90.00000000
_cell_angle_gamma   120.00000000
_symmetry_Int_Tables_number   1
_chemical_formula_structural   Ba4IrO6
_chemical_formula_sum   'Ba24 Ir6 O36'
_cell_volume   1195.13974650
_cell_formula_units_Z   6
loop_
 _symmetry_equiv_pos_site_id
 _symmetry_equiv_pos_as_xyz
  1  'x, y, z'
loop_
 _atom_site_type_symbol
 _atom_site_label
 _atom_site_symmetry_multiplicity
 _atom_site_fract_x
 _atom_site_fract_y
 _atom_site_fract_z
 _atom_site_occupancy
  Ba  Ba0  1  0.03675867  0.33333333  0.08333333  1
  Ba  Ba1  1  0.00000000  0.62990800  0.25000000  1
  Ba  Ba2  1  0.37009200  0.37009200  0.25000000  1
  Ba  Ba3  1  0.33333333  0.66666667  0.41666667  1
  Ba  Ba4  1  0.33333333  0.66666667  0.91666667  1
  Ba  Ba5  1  0.29657467  0.96324133  0.08333333  1
  Ba  Ba6  1  0.66666667  0.70342533  0.08333333  1
  Ba  Ba7  1  0.62990800  0.00000000  0.25000000  1
  Ba  Ba8  1  0.70342533  0.66666667  0.41666667  1
  Ba  Ba9  1  0.66666667  0.96324133  0.58333333  1
  Ba  Ba10  1  0.03675867  0.70342533  0.58333333  1
  Ba  Ba11  1  0.00000000  0.00000000  0.75000000  1
  Ba  Ba12  1  0.00000000  0.00000000  0.25000000  1
  Ba  Ba13  1  0.96324133  0.29657467  0.41666667  1
  Ba  Ba14  1  0.33333333  0.03675867  0.41666667  1
  Ba  Ba15  1  0.29657467  0.33333333  0.58333333  1
  Ba  Ba16  1  0.37009200  0.00000000  0.75000000  1
  Ba  Ba17  1  0.33333333  0.29657467  0.91666667  1
  Ba  Ba18  1  0.70342533  0.03675867  0.91666667  1
  Ba  Ba19  1  0.66666667  0.33333333  0.08333333  1
  Ba  Ba20  1  0.66666667  0.33333333  0.58333333  1
  Ba  Ba21  1  0.62990800  0.62990800  0.75000000  1
  Ba  Ba22  1  0.00000000  0.37009200  0.75000000  1
  Ba  Ba23  1  0.96324133  0.66666667  0.91666667  1
  Ir  Ir24  1  0.00000000  0.00000000  0.00000000  1
  Ir  Ir25  1  0.33333333  0.66666667  0.16666667  1
  Ir  Ir26  1  0.66666667  0.33333333  0.33333333  1
  Ir  Ir27  1  0.00000000  0.00000000  0.50000000  1
  Ir  Ir28  1  0.33333333  0.66666667  0.66666667  1
  Ir  Ir29  1  0.66666667  0.33333333  0.83333333  1
  O  O30  1  0.81972867  0.30943633  0.23972533  1
  O  O31  1  0.17695900  0.15306200  0.09360800  1
  O  O32  1  0.18027133  0.48970767  0.26027467  1
  O  O33  1  0.15637433  0.64276967  0.07305867  1
  O  O34  1  0.97610300  0.82304100  0.09360800  1
  O  O35  1  0.35723033  0.51360467  0.07305867  1
  O  O36  1  0.30943633  0.81972867  0.26027467  1
  O  O37  1  0.51029233  0.69056367  0.26027467  1
  O  O38  1  0.69056367  0.51029233  0.23972533  1
  O  O39  1  0.48639533  0.84362567  0.07305867  1
  O  O40  1  0.48970767  0.18027133  0.23972533  1
  O  O41  1  0.84693800  0.02389700  0.09360800  1
  O  O42  1  0.48639533  0.64276967  0.57305867  1
  O  O43  1  0.84362567  0.48639533  0.42694133  1
  O  O44  1  0.84693800  0.82304100  0.59360800  1
  O  O45  1  0.82304100  0.97610300  0.40639200  1
  O  O46  1  0.64276967  0.15637433  0.42694133  1
  O  O47  1  0.02389700  0.84693800  0.40639200  1
  O  O48  1  0.97610300  0.15306200  0.59360800  1
  O  O49  1  0.17695900  0.02389700  0.59360800  1
  O  O50  1  0.35723033  0.84362567  0.57305867  1
  O  O51  1  0.15306200  0.17695900  0.40639200  1
  O  O52  1  0.15637433  0.51360467  0.57305867  1
  O  O53  1  0.51360467  0.35723033  0.42694133  1
  O  O54  1  0.15306200  0.97610300  0.90639200  1
  O  O55  1  0.51029233  0.81972867  0.76027467  1
  O  O56  1  0.51360467  0.15637433  0.92694133  1
  O  O57  1  0.48970767  0.30943633  0.73972533  1
  O  O58  1  0.30943633  0.48970767  0.76027467  1
  O  O59  1  0.69056367  0.18027133  0.73972533  1
  O  O60  1  0.64276967  0.48639533  0.92694133  1
  O  O61  1  0.84362567  0.35723033  0.92694133  1
  O  O62  1  0.02389700  0.17695900  0.90639200  1
  O  O63  1  0.81972867  0.51029233  0.73972533  1
  O  O64  1  0.82304100  0.84693800  0.90639200  1
  O  O65  1  0.18027133  0.69056367  0.76027467  1
