# generated using pymatgen
data_MnOF
_symmetry_space_group_name_H-M   'P 1'
_cell_length_a   4.82005446
_cell_length_b   3.06228500
_cell_length_c   14.32606312
_cell_angle_alpha   90.00000000
_cell_angle_beta   96.51111974
_cell_angle_gamma   90.00000000
_symmetry_Int_Tables_number   1
_chemical_formula_structural   MnOF
_chemical_formula_sum   'Mn6 O6 F6'
_cell_volume   210.09420923
_cell_formula_units_Z   6
loop_
 _symmetry_equiv_pos_site_id
 _symmetry_equiv_pos_as_xyz
  1  'x, y, z'
loop_
 _atom_site_type_symbol
 _atom_site_label
 _atom_site_symmetry_multiplicity
 _atom_site_fract_x
 _atom_site_fract_y
 _atom_site_fract_z
 _atom_site_occupancy
  Mn  Mn0  1  0.94512200  0.00000000  0.00165700  1
  Mn  Mn1  1  0.99184300  0.00000000  0.66649100  1
  Mn  Mn2  1  0.03091800  0.00000000  0.33336400  1
  Mn  Mn3  1  0.47152300  0.50000000  0.83161900  1
  Mn  Mn4  1  0.50939600  0.50000000  0.50102700  1
  Mn  Mn5  1  0.54853300  0.50000000  0.16823800  1
  O  O6  1  0.79835000  0.50000000  0.06405900  1
  O  O7  1  0.66106900  0.00000000  0.89763400  1
  O  O8  1  0.73397600  0.00000000  0.23192100  1
  O  O9  1  0.69880400  0.00000000  0.56583400  1
  O  O10  1  0.28341300  0.00000000  0.76690900  1
  O  O11  1  0.32391900  0.00000000  0.43362000  1
  F  F12  1  0.80073200  0.50000000  0.72988700  1
  F  F13  1  0.83585400  0.50000000  0.39369500  1
  F  F14  1  0.30653800  0.00000000  0.10171000  1
  F  F15  1  0.14980200  0.50000000  0.94352700  1
  F  F16  1  0.18383800  0.50000000  0.60351600  1
  F  F17  1  0.22636900  0.50000000  0.26529300  1
