# generated using pymatgen
data_Ge11N11O5
_symmetry_space_group_name_H-M   'P 1'
_cell_length_a   5.90624816
_cell_length_b   5.90624816
_cell_length_c   28.89324174
_cell_angle_alpha   90.00000000
_cell_angle_beta   90.00000000
_cell_angle_gamma   120.00000000
_symmetry_Int_Tables_number   1
_chemical_formula_structural   Ge11N11O5
_chemical_formula_sum   'Ge33 N33 O15'
_cell_volume   872.87143929
_cell_formula_units_Z   3
loop_
 _symmetry_equiv_pos_site_id
 _symmetry_equiv_pos_as_xyz
  1  'x, y, z'
loop_
 _atom_site_type_symbol
 _atom_site_label
 _atom_site_symmetry_multiplicity
 _atom_site_fract_x
 _atom_site_fract_y
 _atom_site_fract_z
 _atom_site_occupancy
  Ge  Ge0  1  0.83889633  0.16110367  0.22701367  1
  Ge  Ge1  1  0.00000000  0.00000000  0.31162100  1
  Ge  Ge2  1  0.00000000  0.00000000  0.00219200  1
  Ge  Ge3  1  0.83889633  0.67779267  0.22701367  1
  Ge  Ge4  1  0.32220733  0.16110367  0.22701367  1
  Ge  Ge5  1  0.00000000  0.00000000  0.12312500  1
  Ge  Ge6  1  0.49958767  0.50041233  0.06321433  1
  Ge  Ge7  1  0.66666667  0.33333333  0.14599333  1
  Ge  Ge8  1  0.33333333  0.66666667  0.16791467  1
  Ge  Ge9  1  0.49958767  0.99917533  0.06321433  1
  Ge  Ge10  1  0.00082467  0.50041233  0.06321433  1
  Ge  Ge11  1  0.50556300  0.49443700  0.56034700  1
  Ge  Ge12  1  0.66666667  0.33333333  0.64495433  1
  Ge  Ge13  1  0.66666667  0.33333333  0.33552533  1
  Ge  Ge14  1  0.50556300  0.01112600  0.56034700  1
  Ge  Ge15  1  0.98887400  0.49443700  0.56034700  1
  Ge  Ge16  1  0.66666667  0.33333333  0.45645833  1
  Ge  Ge17  1  0.16625433  0.83374567  0.39654767  1
  Ge  Ge18  1  0.33333333  0.66666667  0.47932667  1
  Ge  Ge19  1  0.00000000  0.00000000  0.50124800  1
  Ge  Ge20  1  0.16625433  0.33250867  0.39654767  1
  Ge  Ge21  1  0.66749133  0.83374567  0.39654767  1
  Ge  Ge22  1  0.17222967  0.82777033  0.89368033  1
  Ge  Ge23  1  0.33333333  0.66666667  0.97828767  1
  Ge  Ge24  1  0.33333333  0.66666667  0.66885867  1
  Ge  Ge25  1  0.17222967  0.34445933  0.89368033  1
  Ge  Ge26  1  0.65554067  0.82777033  0.89368033  1
  Ge  Ge27  1  0.33333333  0.66666667  0.78979167  1
  Ge  Ge28  1  0.83292100  0.16707900  0.72988100  1
  Ge  Ge29  1  0.00000000  0.00000000  0.81266000  1
  Ge  Ge30  1  0.66666667  0.33333333  0.83458133  1
  Ge  Ge31  1  0.83292100  0.66584200  0.72988100  1
  Ge  Ge32  1  0.33415800  0.16707900  0.72988100  1
  N  N33  1  0.00000000  0.00000000  0.18897400  1
  N  N34  1  0.51139567  0.48860433  0.19122233  1
  N  N35  1  0.51139567  0.02279133  0.19122233  1
  N  N36  1  0.97720867  0.48860433  0.19122233  1
  N  N37  1  0.35365467  0.17682733  0.10331333  1
  N  N38  1  0.82317267  0.64634533  0.10331333  1
  N  N39  1  0.82317267  0.17682733  0.10331333  1
  N  N40  1  0.17881267  0.82118733  0.02114033  1
  N  N41  1  0.33333333  0.66666667  0.10039267  1
  N  N42  1  0.64237467  0.82118733  0.02114033  1
  N  N43  1  0.17881267  0.35762533  0.02114033  1
  N  N44  1  0.66666667  0.33333333  0.52230733  1
  N  N45  1  0.17806233  0.82193767  0.52455567  1
  N  N46  1  0.17806233  0.35612467  0.52455567  1
  N  N47  1  0.64387533  0.82193767  0.52455567  1
  N  N48  1  0.02032133  0.51016067  0.43664667  1
  N  N49  1  0.48983933  0.97967867  0.43664667  1
  N  N50  1  0.48983933  0.51016067  0.43664667  1
  N  N51  1  0.84547933  0.15452067  0.35447367  1
  N  N52  1  0.00000000  0.00000000  0.43372600  1
  N  N53  1  0.30904133  0.15452067  0.35447367  1
  N  N54  1  0.84547933  0.69095867  0.35447367  1
  N  N55  1  0.33333333  0.66666667  0.85564067  1
  N  N56  1  0.84472900  0.15527100  0.85788900  1
  N  N57  1  0.84472900  0.68945800  0.85788900  1
  N  N58  1  0.31054200  0.15527100  0.85788900  1
  N  N59  1  0.68698800  0.84349400  0.76998000  1
  N  N60  1  0.15650600  0.31301200  0.76998000  1
  N  N61  1  0.15650600  0.84349400  0.76998000  1
  N  N62  1  0.51214600  0.48785400  0.68780700  1
  N  N63  1  0.66666667  0.33333333  0.76705933  1
  N  N64  1  0.97570800  0.48785400  0.68780700  1
  N  N65  1  0.51214600  0.02429200  0.68780700  1
  O  O66  1  0.71066667  0.85533333  0.26692633  1
  O  O67  1  0.14466667  0.28933333  0.26692633  1
  O  O68  1  0.14466667  0.85533333  0.26692633  1
  O  O69  1  0.66666667  0.33333333  0.26879233  1
  O  O70  1  0.66666667  0.33333333  0.03083433  1
  O  O71  1  0.37733333  0.18866667  0.60025967  1
  O  O72  1  0.81133333  0.62266667  0.60025967  1
  O  O73  1  0.81133333  0.18866667  0.60025967  1
  O  O74  1  0.33333333  0.66666667  0.60212567  1
  O  O75  1  0.33333333  0.66666667  0.36416767  1
  O  O76  1  0.04400000  0.52200000  0.93359300  1
  O  O77  1  0.47800000  0.95600000  0.93359300  1
  O  O78  1  0.47800000  0.52200000  0.93359300  1
  O  O79  1  0.00000000  0.00000000  0.93545900  1
  O  O80  1  0.00000000  0.00000000  0.69750100  1
