# generated using pymatgen
data_Li2Cr3CoO8
_symmetry_space_group_name_H-M   'P 1'
_cell_length_a   5.97162190
_cell_length_b   5.97162190
_cell_length_c   14.12597592
_cell_angle_alpha   90.00000000
_cell_angle_beta   90.00000000
_cell_angle_gamma   120.00000000
_symmetry_Int_Tables_number   1
_chemical_formula_structural   Li2Cr3CoO8
_chemical_formula_sum   'Li6 Cr9 Co3 O24'
_cell_volume   436.24824924
_cell_formula_units_Z   3
loop_
 _symmetry_equiv_pos_site_id
 _symmetry_equiv_pos_as_xyz
  1  'x, y, z'
loop_
 _atom_site_type_symbol
 _atom_site_label
 _atom_site_symmetry_multiplicity
 _atom_site_fract_x
 _atom_site_fract_y
 _atom_site_fract_z
 _atom_site_occupancy
  Li  Li0  1  0.33333333  0.66666667  0.54239367  1
  Li  Li1  1  0.33333333  0.66666667  0.79093967  1
  Li  Li2  1  0.00000000  0.00000000  0.87572700  1
  Li  Li3  1  0.00000000  0.00000000  0.12427300  1
  Li  Li4  1  0.66666667  0.33333333  0.20906033  1
  Li  Li5  1  0.66666667  0.33333333  0.45760633  1
  Cr  Cr6  1  0.00000000  0.50000000  0.00000000  1
  Cr  Cr7  1  0.50000000  0.50000000  0.00000000  1
  Cr  Cr8  1  0.16666667  0.33333333  0.33333333  1
  Cr  Cr9  1  0.66666667  0.83333333  0.33333333  1
  Cr  Cr10  1  0.16666667  0.83333333  0.33333333  1
  Cr  Cr11  1  0.83333333  0.66666667  0.66666667  1
  Cr  Cr12  1  0.33333333  0.16666667  0.66666667  1
  Cr  Cr13  1  0.83333333  0.16666667  0.66666667  1
  Cr  Cr14  1  0.50000000  0.00000000  0.00000000  1
  Co  Co15  1  0.33333333  0.66666667  0.16666667  1
  Co  Co16  1  1.00000000  1.00000000  0.50000000  1
  Co  Co17  1  0.66666667  0.33333333  0.83333333  1
  O  O18  1  0.33333333  0.66666667  0.40196867  1
  O  O19  1  0.48013867  0.96027733  0.25137433  1
  O  O20  1  0.48013867  0.51986133  0.25137433  1
  O  O21  1  0.03972267  0.51986133  0.25137433  1
  O  O22  1  0.62694400  0.81347200  0.08195900  1
  O  O23  1  0.18652800  0.81347200  0.08195900  1
  O  O24  1  0.18652800  0.37305600  0.08195900  1
  O  O25  1  0.33333333  0.66666667  0.93136467  1
  O  O26  1  0.00000000  0.00000000  0.73530200  1
  O  O27  1  0.14680533  0.29361067  0.58470767  1
  O  O28  1  0.14680533  0.85319467  0.58470767  1
  O  O29  1  0.70638933  0.85319467  0.58470767  1
  O  O30  1  0.29361067  0.14680533  0.41529233  1
  O  O31  1  0.85319467  0.14680533  0.41529233  1
  O  O32  1  0.85319467  0.70638933  0.41529233  1
  O  O33  1  0.00000000  0.00000000  0.26469800  1
  O  O34  1  0.66666667  0.33333333  0.06863533  1
  O  O35  1  0.81347200  0.62694400  0.91804100  1
  O  O36  1  0.81347200  0.18652800  0.91804100  1
  O  O37  1  0.37305600  0.18652800  0.91804100  1
  O  O38  1  0.96027733  0.48013867  0.74862567  1
  O  O39  1  0.51986133  0.48013867  0.74862567  1
  O  O40  1  0.51986133  0.03972267  0.74862567  1
  O  O41  1  0.66666667  0.33333333  0.59803133  1
