# generated using pymatgen
data_Li4V2Cr3Ni3O16
_symmetry_space_group_name_H-M   'P 1'
_cell_length_a   10.17804400
_cell_length_b   5.86821400
_cell_length_c   9.44594777
_cell_angle_alpha   90.00000000
_cell_angle_beta   90.22797186
_cell_angle_gamma   90.00000000
_symmetry_Int_Tables_number   1
_chemical_formula_structural   Li4V2Cr3Ni3O16
_chemical_formula_sum   'Li8 V4 Cr6 Ni6 O32'
_cell_volume   564.17309269
_cell_formula_units_Z   2
loop_
 _symmetry_equiv_pos_site_id
 _symmetry_equiv_pos_as_xyz
  1  'x, y, z'
loop_
 _atom_site_type_symbol
 _atom_site_label
 _atom_site_symmetry_multiplicity
 _atom_site_fract_x
 _atom_site_fract_y
 _atom_site_fract_z
 _atom_site_occupancy
  Li  Li0  1  0.66192200  0.00000000  0.89811000  1
  Li  Li1  1  0.50388100  0.50000000  0.98742200  1
  Li  Li2  1  0.99980700  0.00000000  0.49556900  1
  Li  Li3  1  0.83582800  0.50000000  0.39956900  1
  Li  Li4  1  0.16192200  0.50000000  0.89811000  1
  Li  Li5  1  0.00388100  0.00000000  0.98742200  1
  Li  Li6  1  0.49980700  0.50000000  0.49556900  1
  Li  Li7  1  0.33582800  0.00000000  0.39956900  1
  V  V8  1  0.66458900  0.00000000  0.50254700  1
  V  V9  1  0.84749000  0.50000000  0.99306700  1
  V  V10  1  0.16458900  0.50000000  0.50254700  1
  V  V11  1  0.34749000  0.00000000  0.99306700  1
  Cr  Cr12  1  0.59461000  0.24519300  0.21978200  1
  Cr  Cr13  1  0.59461000  0.75480700  0.21978200  1
  Cr  Cr14  1  0.67710400  0.50000000  0.72962000  1
  Cr  Cr15  1  0.09461000  0.74519300  0.21978200  1
  Cr  Cr16  1  0.09461000  0.25480700  0.21978200  1
  Cr  Cr17  1  0.17710400  0.00000000  0.72962000  1
  Ni  Ni18  1  0.83015400  0.00000000  0.20818400  1
  Ni  Ni19  1  0.91035900  0.74340100  0.71042200  1
  Ni  Ni20  1  0.91035900  0.25659900  0.71042200  1
  Ni  Ni21  1  0.33015400  0.50000000  0.20818400  1
  Ni  Ni22  1  0.41035900  0.24340100  0.71042200  1
  Ni  Ni23  1  0.41035900  0.75659900  0.71042200  1
  O  O24  1  0.58892750  0.23802050  0.58919000  1
  O  O25  1  0.52249100  0.00000000  0.34279800  1
  O  O26  1  0.65227800  0.00000000  0.10477300  1
  O  O27  1  0.50660900  0.50000000  0.30131400  1
  O  O28  1  0.50559200  0.50000000  0.79457000  1
  O  O29  1  0.58892750  0.76197950  0.58919000  1
  O  O30  1  0.73538300  0.22253500  0.34245700  1
  O  O31  1  0.73538300  0.77746500  0.34245700  1
  O  O32  1  0.67295200  0.50000000  0.09878400  1
  O  O33  1  0.82428300  0.00000000  0.58156200  1
  O  O34  1  0.75113100  0.71440900  0.85223500  1
  O  O35  1  0.75113100  0.28559100  0.85223500  1
  O  O36  1  0.81713600  0.50000000  0.60436000  1
  O  O37  1  0.91650100  0.74065300  0.09092900  1
  O  O38  1  0.97329400  0.50000000  0.85504500  1
  O  O39  1  0.91650100  0.25934700  0.09092900  1
  O  O40  1  0.08892750  0.73802050  0.58919000  1
  O  O41  1  0.02249100  0.50000000  0.34279800  1
  O  O42  1  0.15227800  0.50000000  0.10477300  1
  O  O43  1  0.00660900  0.00000000  0.30131400  1
  O  O44  1  0.00559200  0.00000000  0.79457000  1
  O  O45  1  0.08892750  0.26197950  0.58919000  1
  O  O46  1  0.23538300  0.72253500  0.34245700  1
  O  O47  1  0.23538300  0.27746500  0.34245700  1
  O  O48  1  0.17295200  0.00000000  0.09878400  1
  O  O49  1  0.32428300  0.50000000  0.58156200  1
  O  O50  1  0.25113100  0.21440900  0.85223500  1
  O  O51  1  0.25113100  0.78559100  0.85223500  1
  O  O52  1  0.31713600  0.00000000  0.60436000  1
  O  O53  1  0.41650100  0.24065300  0.09092900  1
  O  O54  1  0.47329400  0.00000000  0.85504500  1
  O  O55  1  0.41650100  0.75934700  0.09092900  1
