# generated using pymatgen
data_Li3Ti6O13
_symmetry_space_group_name_H-M   'P 1'
_cell_length_a   12.04012800
_cell_length_b   3.97533600
_cell_length_c   10.51469228
_cell_angle_alpha   90.00000000
_cell_angle_beta   100.73066101
_cell_angle_gamma   90.00000000
_symmetry_Int_Tables_number   1
_chemical_formula_structural   Li3Ti6O13
_chemical_formula_sum   'Li6 Ti12 O26'
_cell_volume   494.47000318
_cell_formula_units_Z   2
loop_
 _symmetry_equiv_pos_site_id
 _symmetry_equiv_pos_as_xyz
  1  'x, y, z'
loop_
 _atom_site_type_symbol
 _atom_site_label
 _atom_site_symmetry_multiplicity
 _atom_site_fract_x
 _atom_site_fract_y
 _atom_site_fract_z
 _atom_site_occupancy
  Li  Li0  1  0.93072200  0.00000000  0.58674800  1
  Li  Li1  1  0.00000000  0.00000000  0.00000000  1
  Li  Li2  1  0.56927800  0.50000000  0.41325200  1
  Li  Li3  1  0.43072200  0.50000000  0.58674800  1
  Li  Li4  1  0.50000000  0.50000000  0.00000000  1
  Li  Li5  1  0.06927800  0.00000000  0.41325200  1
  Ti  Ti6  1  0.71787000  0.00000000  0.35915700  1
  Ti  Ti7  1  0.59828800  0.00000000  0.63969600  1
  Ti  Ti8  1  0.65800500  0.00000000  0.99860100  1
  Ti  Ti9  1  0.84199500  0.50000000  0.00139900  1
  Ti  Ti10  1  0.90171200  0.50000000  0.36030400  1
  Ti  Ti11  1  0.78213000  0.50000000  0.64084300  1
  Ti  Ti12  1  0.21787000  0.50000000  0.35915700  1
  Ti  Ti13  1  0.09828800  0.50000000  0.63969600  1
  Ti  Ti14  1  0.15800500  0.50000000  0.99860100  1
  Ti  Ti15  1  0.34199500  0.00000000  0.00139900  1
  Ti  Ti16  1  0.40171200  0.00000000  0.36030400  1
  Ti  Ti17  1  0.28213000  0.00000000  0.64084300  1
  O  O18  1  0.89330600  0.00000000  0.39318000  1
  O  O19  1  0.82929600  0.00000000  0.99985600  1
  O  O20  1  0.76162000  0.00000000  0.60045700  1
  O  O21  1  0.68355900  0.00000000  0.19204000  1
  O  O22  1  0.56754200  0.00000000  0.40727700  1
  O  O23  1  0.62175700  0.00000000  0.80815100  1
  O  O24  1  0.87824300  0.50000000  0.19184900  1
  O  O25  1  0.00000000  0.50000000  0.00000000  1
  O  O26  1  0.93245800  0.50000000  0.59272300  1
  O  O27  1  0.81644100  0.50000000  0.80796000  1
  O  O28  1  0.73838000  0.50000000  0.39954300  1
  O  O29  1  0.67070400  0.50000000  0.00014400  1
  O  O30  1  0.60669400  0.50000000  0.60682000  1
  O  O31  1  0.39330600  0.50000000  0.39318000  1
  O  O32  1  0.32929600  0.50000000  0.99985600  1
  O  O33  1  0.26162000  0.50000000  0.60045700  1
  O  O34  1  0.18355900  0.50000000  0.19204000  1
  O  O35  1  0.06754200  0.50000000  0.40727700  1
  O  O36  1  0.12175700  0.50000000  0.80815100  1
  O  O37  1  0.37824300  0.00000000  0.19184900  1
  O  O38  1  0.50000000  0.00000000  0.00000000  1
  O  O39  1  0.43245800  0.00000000  0.59272300  1
  O  O40  1  0.31644100  0.00000000  0.80796000  1
  O  O41  1  0.23838000  0.00000000  0.39954300  1
  O  O42  1  0.17070400  0.00000000  0.00014400  1
  O  O43  1  0.10669400  0.00000000  0.60682000  1
