# generated using pymatgen
data_V2Cu2O7
_symmetry_space_group_name_H-M   'P 1'
_cell_length_a   8.45995000
_cell_length_b   10.27271800
_cell_length_c   6.77189002
_cell_angle_alpha   90.00000000
_cell_angle_beta   115.00489760
_cell_angle_gamma   90.00000000
_symmetry_Int_Tables_number   1
_chemical_formula_structural   V2Cu2O7
_chemical_formula_sum   'V8 Cu8 O28'
_cell_volume   533.36124706
_cell_formula_units_Z   4
loop_
 _symmetry_equiv_pos_site_id
 _symmetry_equiv_pos_as_xyz
  1  'x, y, z'
loop_
 _atom_site_type_symbol
 _atom_site_label
 _atom_site_symmetry_multiplicity
 _atom_site_fract_x
 _atom_site_fract_y
 _atom_site_fract_z
 _atom_site_occupancy
  V  V0  1  0.69547300  0.94919200  0.11788100  1
  V  V1  1  0.69547300  0.05080800  0.61788100  1
  V  V2  1  0.30452700  0.94919200  0.38211900  1
  V  V3  1  0.30452700  0.05080800  0.88211900  1
  V  V4  1  0.19547300  0.44919200  0.11788100  1
  V  V5  1  0.19547300  0.55080800  0.61788100  1
  V  V6  1  0.80452700  0.44919200  0.38211900  1
  V  V7  1  0.80452700  0.55080800  0.88211900  1
  Cu  Cu8  1  0.45353950  0.34658350  0.97736800  1
  Cu  Cu9  1  0.45353950  0.65341650  0.47736800  1
  Cu  Cu10  1  0.54646050  0.34658350  0.52263200  1
  Cu  Cu11  1  0.54646050  0.65341650  0.02263200  1
  Cu  Cu12  1  0.95353950  0.84658350  0.97736800  1
  Cu  Cu13  1  0.95353950  0.15341650  0.47736800  1
  Cu  Cu14  1  0.04646050  0.84658350  0.52263200  1
  Cu  Cu15  1  0.04646050  0.15341650  0.02263200  1
  O  O16  1  0.73716550  0.04558650  0.36694400  1
  O  O17  1  0.26283450  0.04558650  0.13305600  1
  O  O18  1  0.49772700  0.12642000  0.95456100  1
  O  O19  1  0.49772700  0.87358000  0.45456100  1
  O  O20  1  0.34428000  0.67505000  0.73272200  1
  O  O21  1  0.50227300  0.12642000  0.54543900  1
  O  O22  1  0.50227300  0.87358000  0.04543900  1
  O  O23  1  0.73716550  0.95441350  0.86694400  1
  O  O24  1  0.26283450  0.95441350  0.63305600  1
  O  O25  1  0.50000000  0.58809000  0.25000000  1
  O  O26  1  0.34428000  0.32495000  0.23272200  1
  O  O27  1  0.65572000  0.67505000  0.76727800  1
  O  O28  1  0.50000000  0.41191000  0.75000000  1
  O  O29  1  0.65572000  0.32495000  0.26727800  1
  O  O30  1  0.23716550  0.54558650  0.36694400  1
  O  O31  1  0.76283450  0.54558650  0.13305600  1
  O  O32  1  0.99772700  0.62642000  0.95456100  1
  O  O33  1  0.99772700  0.37358000  0.45456100  1
  O  O34  1  0.84428000  0.17505000  0.73272200  1
  O  O35  1  0.00227300  0.62642000  0.54543900  1
  O  O36  1  0.00227300  0.37358000  0.04543900  1
  O  O37  1  0.23716550  0.45441350  0.86694400  1
  O  O38  1  0.76283450  0.45441350  0.63305600  1
  O  O39  1  0.00000000  0.08809000  0.25000000  1
  O  O40  1  0.84428000  0.82495000  0.23272200  1
  O  O41  1  0.15572000  0.17505000  0.76727800  1
  O  O42  1  0.00000000  0.91191000  0.75000000  1
  O  O43  1  0.15572000  0.82495000  0.26727800  1
