# generated using pymatgen
data_Li8Mn13Cr3O32
_symmetry_space_group_name_H-M   'P 1'
_cell_length_a   11.78782800
_cell_length_b   11.64564200
_cell_length_c   10.35795694
_cell_angle_alpha   90.00000000
_cell_angle_beta   123.89282390
_cell_angle_gamma   90.00000000
_symmetry_Int_Tables_number   1
_chemical_formula_structural   Li8Mn13Cr3O32
_chemical_formula_sum   'Li16 Mn26 Cr6 O64'
_cell_volume   1180.29996257
_cell_formula_units_Z   2
loop_
 _symmetry_equiv_pos_site_id
 _symmetry_equiv_pos_as_xyz
  1  'x, y, z'
loop_
 _atom_site_type_symbol
 _atom_site_label
 _atom_site_symmetry_multiplicity
 _atom_site_fract_x
 _atom_site_fract_y
 _atom_site_fract_z
 _atom_site_occupancy
  Li  Li0  1  0.68478800  0.50000000  0.11611400  1
  Li  Li1  1  0.18228800  0.50000000  0.11262000  1
  Li  Li2  1  0.81595300  0.24986200  0.38351900  1
  Li  Li3  1  0.81595300  0.75013800  0.38351900  1
  Li  Li4  1  0.18404700  0.75013800  0.61648100  1
  Li  Li5  1  0.18404700  0.24986200  0.61648100  1
  Li  Li6  1  0.31521200  0.50000000  0.88388600  1
  Li  Li7  1  0.81771200  0.50000000  0.88738000  1
  Li  Li8  1  0.18478800  0.00000000  0.11611400  1
  Li  Li9  1  0.68228800  0.00000000  0.11262000  1
  Li  Li10  1  0.31595300  0.74986200  0.38351900  1
  Li  Li11  1  0.31595300  0.25013800  0.38351900  1
  Li  Li12  1  0.68404700  0.25013800  0.61648100  1
  Li  Li13  1  0.68404700  0.74986200  0.61648100  1
  Li  Li14  1  0.81521200  0.00000000  0.88388600  1
  Li  Li15  1  0.31771200  0.00000000  0.88738000  1
  Mn  Mn16  1  0.75000000  0.75000000  0.00000000  1
  Mn  Mn17  1  0.25000000  0.75000000  0.00000000  1
  Mn  Mn18  1  0.99724700  0.87602800  0.24511800  1
  Mn  Mn19  1  0.99724700  0.12397200  0.24511800  1
  Mn  Mn20  1  0.00025200  0.62533400  0.25012900  1
  Mn  Mn21  1  0.00025200  0.37466600  0.25012900  1
  Mn  Mn22  1  0.00000000  0.00000000  0.50000000  1
  Mn  Mn23  1  0.74868700  0.50000000  0.49892600  1
  Mn  Mn24  1  0.25131300  0.50000000  0.50107400  1
  Mn  Mn25  1  0.99974800  0.37466600  0.74987100  1
  Mn  Mn26  1  0.00275300  0.87602800  0.75488200  1
  Mn  Mn27  1  0.00275300  0.12397200  0.75488200  1
  Mn  Mn28  1  0.99974800  0.62533400  0.74987100  1
  Mn  Mn29  1  0.25000000  0.25000000  0.00000000  1
  Mn  Mn30  1  0.75000000  0.25000000  0.00000000  1
  Mn  Mn31  1  0.49724700  0.37602800  0.24511800  1
  Mn  Mn32  1  0.49724700  0.62397200  0.24511800  1
  Mn  Mn33  1  0.50025200  0.12533400  0.25012900  1
  Mn  Mn34  1  0.50025200  0.87466600  0.25012900  1
  Mn  Mn35  1  0.50000000  0.50000000  0.50000000  1
  Mn  Mn36  1  0.24868700  0.00000000  0.49892600  1
  Mn  Mn37  1  0.75131300  0.00000000  0.50107400  1
  Mn  Mn38  1  0.49974800  0.87466600  0.74987100  1
  Mn  Mn39  1  0.50275300  0.37602800  0.75488200  1
  Mn  Mn40  1  0.50275300  0.62397200  0.75488200  1
  Mn  Mn41  1  0.49974800  0.12533400  0.74987100  1
  Cr  Cr42  1  0.00000000  0.25141700  0.00000000  1
  Cr  Cr43  1  0.00000000  0.74858300  0.00000000  1
  Cr  Cr44  1  0.00000000  0.50000000  0.50000000  1
  Cr  Cr45  1  0.50000000  0.75141700  0.00000000  1
  Cr  Cr46  1  0.50000000  0.24858300  0.00000000  1
  Cr  Cr47  1  0.50000000  0.00000000  0.50000000  1
  O  O48  1  0.88292150  0.86288150  0.02020400  1
  O  O49  1  0.88292150  0.13711850  0.02020400  1
  O  O50  1  0.88339050  0.63558950  0.02406900  1
  O  O51  1  0.88339050  0.36441050  0.02406900  1
  O  O52  1  0.10485800  0.25034600  0.23642800  1
  O  O53  1  0.10485800  0.74965400  0.23642800  1
  O  O54  1  0.89427150  0.75065950  0.25519800  1
  O  O55  1  0.89427150  0.24934050  0.25519800  1
  O  O56  1  0.89565800  0.50000000  0.26426500  1
  O  O57  1  0.38845400  0.50000000  0.24612000  1
  O  O58  1  0.60509000  0.50000000  0.24206200  1
  O  O59  1  0.10583200  0.50000000  0.24381600  1
  O  O60  1  0.11759700  0.61416700  0.47702100  1
  O  O61  1  0.11759700  0.38583300  0.47702100  1
  O  O62  1  0.11231100  0.11278300  0.47418900  1
  O  O63  1  0.11231100  0.88721700  0.47418900  1
  O  O64  1  0.88240300  0.38583300  0.52297900  1
  O  O65  1  0.88240300  0.61416700  0.52297900  1
  O  O66  1  0.88768900  0.88721700  0.52581100  1
  O  O67  1  0.88768900  0.11278300  0.52581100  1
  O  O68  1  0.10434200  0.50000000  0.73573500  1
  O  O69  1  0.89416800  0.50000000  0.75618400  1
  O  O70  1  0.39491000  0.50000000  0.75793800  1
  O  O71  1  0.61154600  0.50000000  0.75388000  1
  O  O72  1  0.10572850  0.75065950  0.74480200  1
  O  O73  1  0.89514200  0.25034600  0.76357200  1
  O  O74  1  0.89514200  0.74965400  0.76357200  1
  O  O75  1  0.10572850  0.24934050  0.74480200  1
  O  O76  1  0.11660950  0.63558950  0.97593100  1
  O  O77  1  0.11707850  0.13711850  0.97979600  1
  O  O78  1  0.11660950  0.36441050  0.97593100  1
  O  O79  1  0.11707850  0.86288150  0.97979600  1
  O  O80  1  0.38292150  0.36288150  0.02020400  1
  O  O81  1  0.38292150  0.63711850  0.02020400  1
  O  O82  1  0.38339050  0.13558950  0.02406900  1
  O  O83  1  0.38339050  0.86441050  0.02406900  1
  O  O84  1  0.60485800  0.75034600  0.23642800  1
  O  O85  1  0.60485800  0.24965400  0.23642800  1
  O  O86  1  0.39427150  0.25065950  0.25519800  1
  O  O87  1  0.39427150  0.74934050  0.25519800  1
  O  O88  1  0.39565800  0.00000000  0.26426500  1
  O  O89  1  0.88845400  0.00000000  0.24612000  1
  O  O90  1  0.10509000  0.00000000  0.24206200  1
  O  O91  1  0.60583200  0.00000000  0.24381600  1
  O  O92  1  0.61759700  0.11416700  0.47702100  1
  O  O93  1  0.61759700  0.88583300  0.47702100  1
  O  O94  1  0.61231100  0.61278300  0.47418900  1
  O  O95  1  0.61231100  0.38721700  0.47418900  1
  O  O96  1  0.38240300  0.88583300  0.52297900  1
  O  O97  1  0.38240300  0.11416700  0.52297900  1
  O  O98  1  0.38768900  0.38721700  0.52581100  1
  O  O99  1  0.38768900  0.61278300  0.52581100  1
  O  O100  1  0.60434200  0.00000000  0.73573500  1
  O  O101  1  0.39416800  0.00000000  0.75618400  1
  O  O102  1  0.89491000  0.00000000  0.75793800  1
  O  O103  1  0.11154600  0.00000000  0.75388000  1
  O  O104  1  0.60572850  0.25065950  0.74480200  1
  O  O105  1  0.39514200  0.75034600  0.76357200  1
  O  O106  1  0.39514200  0.24965400  0.76357200  1
  O  O107  1  0.60572850  0.74934050  0.74480200  1
  O  O108  1  0.61660950  0.13558950  0.97593100  1
  O  O109  1  0.61707850  0.63711850  0.97979600  1
  O  O110  1  0.61660950  0.86441050  0.97593100  1
  O  O111  1  0.61707850  0.36288150  0.97979600  1
