# generated using pymatgen
data_Li5CrO5
_symmetry_space_group_name_H-M   'P 1'
_cell_length_a   9.42010768
_cell_length_b   4.10551602
_cell_length_c   5.67461591
_cell_angle_alpha   90.00000000
_cell_angle_beta   108.76123473
_cell_angle_gamma   90.00000000
_symmetry_Int_Tables_number   1
_chemical_formula_structural   Li5CrO5
_chemical_formula_sum   'Li10 Cr2 O10'
_cell_volume   207.80170571
_cell_formula_units_Z   2
loop_
 _symmetry_equiv_pos_site_id
 _symmetry_equiv_pos_as_xyz
  1  'x, y, z'
loop_
 _atom_site_type_symbol
 _atom_site_label
 _atom_site_symmetry_multiplicity
 _atom_site_fract_x
 _atom_site_fract_y
 _atom_site_fract_z
 _atom_site_occupancy
  Li  Li0  1  0.00000000  0.98768950  0.50000000  1
  Li  Li1  1  0.30942313  0.00702112  0.13864000  1
  Li  Li2  1  0.19057687  0.50702112  0.86136000  1
  Li  Li3  1  0.29100350  0.00942800  0.66196500  1
  Li  Li4  1  0.20899650  0.50942800  0.33803500  1
  Li  Li5  1  0.50000000  0.48768950  0.50000000  1
  Li  Li6  1  0.80942312  0.50702112  0.13864000  1
  Li  Li7  1  0.69057688  0.00702112  0.86136000  1
  Li  Li8  1  0.79100350  0.50942800  0.66196500  1
  Li  Li9  1  0.70899650  0.00942800  0.33803500  1
  Cr  Cr10  1  0.00000000  0.07608375  0.00000000  1
  Cr  Cr11  1  0.50000000  0.57608375  0.00000000  1
  O  O12  1  0.00000000  0.48557687  0.00000000  1
  O  O13  1  0.36030000  0.49427850  0.16645900  1
  O  O14  1  0.13970000  0.99427850  0.83354100  1
  O  O15  1  0.34672762  0.49733512  0.69172600  1
  O  O16  1  0.15327238  0.99733512  0.30827400  1
  O  O17  1  0.50000000  0.98557687  0.00000000  1
  O  O18  1  0.86030000  0.99427850  0.16645900  1
  O  O19  1  0.63970000  0.49427850  0.83354100  1
  O  O20  1  0.84672762  0.99733512  0.69172600  1
  O  O21  1  0.65327238  0.49733512  0.30827400  1
