# generated using pymatgen
data_K4Nb15O24
_symmetry_space_group_name_H-M   'P 1'
_cell_length_a   16.75161000
_cell_length_b   8.27641600
_cell_length_c   9.41493959
_cell_angle_alpha   90.00000000
_cell_angle_beta   116.44026693
_cell_angle_gamma   90.00000000
_symmetry_Int_Tables_number   1
_chemical_formula_structural   K4Nb15O24
_chemical_formula_sum   'K8 Nb30 O48'
_cell_volume   1168.78070658
_cell_formula_units_Z   2
loop_
 _symmetry_equiv_pos_site_id
 _symmetry_equiv_pos_as_xyz
  1  'x, y, z'
loop_
 _atom_site_type_symbol
 _atom_site_label
 _atom_site_symmetry_multiplicity
 _atom_site_fract_x
 _atom_site_fract_y
 _atom_site_fract_z
 _atom_site_occupancy
  K  K0  1  0.00000000  0.00000000  0.00000000  1
  K  K1  1  0.00000000  0.50000000  0.00000000  1
  K  K2  1  0.25223000  0.00000000  0.00259700  1
  K  K3  1  0.24777000  0.50000000  0.99740300  1
  K  K4  1  0.50000000  0.50000000  0.00000000  1
  K  K5  1  0.50000000  0.00000000  0.00000000  1
  K  K6  1  0.75223000  0.50000000  0.00259700  1
  K  K7  1  0.74777000  0.00000000  0.99740300  1
  Nb  Nb8  1  0.43282950  0.74125050  0.23160300  1
  Nb  Nb9  1  0.37376050  0.74330150  0.50029200  1
  Nb  Nb10  1  0.31276300  0.75033100  0.75086500  1
  Nb  Nb11  1  0.00000000  0.50000000  0.50000000  1
  Nb  Nb12  1  0.25283200  0.00000000  0.50023200  1
  Nb  Nb13  1  0.43282950  0.25874950  0.23160300  1
  Nb  Nb14  1  0.18723700  0.25033100  0.24913500  1
  Nb  Nb15  1  0.37376050  0.25669850  0.50029200  1
  Nb  Nb16  1  0.12623950  0.24330150  0.49970800  1
  Nb  Nb17  1  0.31276300  0.24966900  0.75086500  1
  Nb  Nb18  1  0.06717050  0.24125050  0.76839700  1
  Nb  Nb19  1  0.24716800  0.50000000  0.49976800  1
  Nb  Nb20  1  0.18723700  0.74966900  0.24913500  1
  Nb  Nb21  1  0.12623950  0.75669850  0.49970800  1
  Nb  Nb22  1  0.06717050  0.75874950  0.76839700  1
  Nb  Nb23  1  0.93282950  0.24125050  0.23160300  1
  Nb  Nb24  1  0.87376050  0.24330150  0.50029200  1
  Nb  Nb25  1  0.81276300  0.25033100  0.75086500  1
  Nb  Nb26  1  0.50000000  0.00000000  0.50000000  1
  Nb  Nb27  1  0.75283200  0.50000000  0.50023200  1
  Nb  Nb28  1  0.93282950  0.75874950  0.23160300  1
  Nb  Nb29  1  0.68723700  0.75033100  0.24913500  1
  Nb  Nb30  1  0.87376050  0.75669850  0.50029200  1
  Nb  Nb31  1  0.62623950  0.74330150  0.49970800  1
  Nb  Nb32  1  0.81276300  0.74966900  0.75086500  1
  Nb  Nb33  1  0.56717050  0.74125050  0.76839700  1
  Nb  Nb34  1  0.74716800  0.00000000  0.49976800  1
  Nb  Nb35  1  0.68723700  0.24966900  0.24913500  1
  Nb  Nb36  1  0.62623950  0.25669850  0.49970800  1
  Nb  Nb37  1  0.56717050  0.25874950  0.76839700  1
  O  O38  1  0.31303250  0.74674850  0.24754700  1
  O  O39  1  0.43929150  0.74691750  0.75277000  1
  O  O40  1  0.37532800  0.75436100  0.00101400  1
  O  O41  1  0.43676300  0.00000000  0.24695400  1
  O  O42  1  0.37622200  0.00000000  0.49995800  1
  O  O43  1  0.18764400  0.00000000  0.24651600  1
  O  O44  1  0.12608300  0.00000000  0.49989400  1
  O  O45  1  0.31400600  0.00000000  0.75226700  1
  O  O46  1  0.06501500  0.00000000  0.76004000  1
  O  O47  1  0.37532800  0.24563900  0.00101400  1
  O  O48  1  0.12467200  0.25436100  0.99898600  1
  O  O49  1  0.31303250  0.25325150  0.24754700  1
  O  O50  1  0.06070850  0.24691750  0.24723000  1
  O  O51  1  0.43929150  0.25308250  0.75277000  1
  O  O52  1  0.18696750  0.24674850  0.75245300  1
  O  O53  1  0.31235600  0.50000000  0.75348400  1
  O  O54  1  0.06323700  0.50000000  0.75304600  1
  O  O55  1  0.43498500  0.50000000  0.23996000  1
  O  O56  1  0.37391700  0.50000000  0.50010600  1
  O  O57  1  0.18599400  0.50000000  0.24773300  1
  O  O58  1  0.12377800  0.50000000  0.50004200  1
  O  O59  1  0.18696750  0.75325150  0.75245300  1
  O  O60  1  0.06070850  0.75308250  0.24723000  1
  O  O61  1  0.12467200  0.74563900  0.99898600  1
  O  O62  1  0.81303250  0.24674850  0.24754700  1
  O  O63  1  0.93929150  0.24691750  0.75277000  1
  O  O64  1  0.87532800  0.25436100  0.00101400  1
  O  O65  1  0.93676300  0.50000000  0.24695400  1
  O  O66  1  0.87622200  0.50000000  0.49995800  1
  O  O67  1  0.68764400  0.50000000  0.24651600  1
  O  O68  1  0.62608300  0.50000000  0.49989400  1
  O  O69  1  0.81400600  0.50000000  0.75226700  1
  O  O70  1  0.56501500  0.50000000  0.76004000  1
  O  O71  1  0.87532800  0.74563900  0.00101400  1
  O  O72  1  0.62467200  0.75436100  0.99898600  1
  O  O73  1  0.81303250  0.75325150  0.24754700  1
  O  O74  1  0.56070850  0.74691750  0.24723000  1
  O  O75  1  0.93929150  0.75308250  0.75277000  1
  O  O76  1  0.68696750  0.74674850  0.75245300  1
  O  O77  1  0.81235600  0.00000000  0.75348400  1
  O  O78  1  0.56323700  0.00000000  0.75304600  1
  O  O79  1  0.93498500  0.00000000  0.23996000  1
  O  O80  1  0.87391700  0.00000000  0.50010600  1
  O  O81  1  0.68599400  0.00000000  0.24773300  1
  O  O82  1  0.62377800  0.00000000  0.50004200  1
  O  O83  1  0.68696750  0.25325150  0.75245300  1
  O  O84  1  0.56070850  0.25308250  0.24723000  1
  O  O85  1  0.62467200  0.24563900  0.99898600  1
