# generated using pymatgen
data_Li2MnOF2
_symmetry_space_group_name_H-M   'P 1'
_cell_length_a   6.00210060
_cell_length_b   10.82338268
_cell_length_c   4.17367400
_cell_angle_alpha   90.00000000
_cell_angle_beta   90.00000000
_cell_angle_gamma   90.00000000
_symmetry_Int_Tables_number   1
_chemical_formula_structural   Li2MnOF2
_chemical_formula_sum   'Li8 Mn4 O4 F8'
_cell_volume   271.13451628
_cell_formula_units_Z   4
loop_
 _symmetry_equiv_pos_site_id
 _symmetry_equiv_pos_as_xyz
  1  'x, y, z'
loop_
 _atom_site_type_symbol
 _atom_site_label
 _atom_site_symmetry_multiplicity
 _atom_site_fract_x
 _atom_site_fract_y
 _atom_site_fract_z
 _atom_site_occupancy
  Li  Li0  1  0.83179500  0.16717400  0.75000000  1
  Li  Li1  1  0.16820500  0.16717400  0.25000000  1
  Li  Li2  1  0.66820500  0.33282600  0.25000000  1
  Li  Li3  1  0.33179500  0.33282600  0.75000000  1
  Li  Li4  1  0.33179500  0.66717400  0.75000000  1
  Li  Li5  1  0.66820500  0.66717400  0.25000000  1
  Li  Li6  1  0.16820500  0.83282600  0.25000000  1
  Li  Li7  1  0.83179500  0.83282600  0.75000000  1
  Mn  Mn8  1  0.83281000  0.50000000  0.75000000  1
  Mn  Mn9  1  0.66719000  0.00000000  0.25000000  1
  Mn  Mn10  1  0.33281000  0.00000000  0.75000000  1
  Mn  Mn11  1  0.16719000  0.50000000  0.25000000  1
  O  O12  1  0.81148800  0.50000000  0.25000000  1
  O  O13  1  0.68851200  0.00000000  0.75000000  1
  O  O14  1  0.31148800  0.00000000  0.25000000  1
  O  O15  1  0.18851200  0.50000000  0.75000000  1
  F  F16  1  0.15767200  0.17962900  0.75000000  1
  F  F17  1  0.84232800  0.17962900  0.25000000  1
  F  F18  1  0.65767200  0.32037100  0.75000000  1
  F  F19  1  0.34232800  0.32037100  0.25000000  1
  F  F20  1  0.65767200  0.67962900  0.75000000  1
  F  F21  1  0.34232800  0.67962900  0.25000000  1
  F  F22  1  0.15767200  0.82037100  0.75000000  1
  F  F23  1  0.84232800  0.82037100  0.25000000  1
