# generated using pymatgen
data_Li2P2WO8
_symmetry_space_group_name_H-M   'P 1'
_cell_length_a   5.97859100
_cell_length_b   4.86432500
_cell_length_c   10.46845544
_cell_angle_alpha   90.00000000
_cell_angle_beta   90.03914969
_cell_angle_gamma   90.00000000
_symmetry_Int_Tables_number   1
_chemical_formula_structural   Li2P2WO8
_chemical_formula_sum   'Li4 P4 W2 O16'
_cell_volume   304.44155764
_cell_formula_units_Z   2
loop_
 _symmetry_equiv_pos_site_id
 _symmetry_equiv_pos_as_xyz
  1  'x, y, z'
loop_
 _atom_site_type_symbol
 _atom_site_label
 _atom_site_symmetry_multiplicity
 _atom_site_fract_x
 _atom_site_fract_y
 _atom_site_fract_z
 _atom_site_occupancy
  Li  Li0  1  0.43436100  0.26089900  0.50815800  1
  Li  Li1  1  0.43436100  0.73910100  0.00815800  1
  Li  Li2  1  0.24852700  0.72728000  0.71944200  1
  Li  Li3  1  0.24852700  0.27272000  0.21944200  1
  P  P4  1  0.75443100  0.65915000  0.59634900  1
  P  P5  1  0.75443100  0.34085000  0.09634900  1
  P  P6  1  0.25744600  0.19414900  0.90605700  1
  P  P7  1  0.25744600  0.80585100  0.40605700  1
  W  W8  1  0.75673500  0.22688800  0.77695800  1
  W  W9  1  0.75673500  0.77311200  0.27695800  1
  O  O10  1  0.94857400  0.52846400  0.67632300  1
  O  O11  1  0.94857400  0.47153600  0.17632300  1
  O  O12  1  0.75966200  0.42806100  0.95548400  1
  O  O13  1  0.75966200  0.57193900  0.45548400  1
  O  O14  1  0.74205400  0.97273900  0.61014500  1
  O  O15  1  0.74205400  0.02726100  0.11014500  1
  O  O16  1  0.55225200  0.49701400  0.66049700  1
  O  O17  1  0.55225200  0.50298600  0.16049700  1
  O  O18  1  0.46424600  0.04810400  0.83174700  1
  O  O19  1  0.46424600  0.95189600  0.33174700  1
  O  O20  1  0.27012300  0.50279000  0.89023900  1
  O  O21  1  0.27012300  0.49721000  0.39023900  1
  O  O22  1  0.25898800  0.91994600  0.54125500  1
  O  O23  1  0.25898800  0.08005400  0.04125500  1
  O  O24  1  0.05260000  0.06618600  0.82734500  1
  O  O25  1  0.05260000  0.93381400  0.32734500  1
