# generated using pymatgen
data_Li2CrSi4O11
_symmetry_space_group_name_H-M   'P 1'
_cell_length_a   10.73321400
_cell_length_b   9.55913400
_cell_length_c   8.21263208
_cell_angle_alpha   90.00000000
_cell_angle_beta   101.92491891
_cell_angle_gamma   90.00000000
_symmetry_Int_Tables_number   1
_chemical_formula_structural   Li2CrSi4O11
_chemical_formula_sum   'Li8 Cr4 Si16 O44'
_cell_volume   824.43358739
_cell_formula_units_Z   4
loop_
 _symmetry_equiv_pos_site_id
 _symmetry_equiv_pos_as_xyz
  1  'x, y, z'
loop_
 _atom_site_type_symbol
 _atom_site_label
 _atom_site_symmetry_multiplicity
 _atom_site_fract_x
 _atom_site_fract_y
 _atom_site_fract_z
 _atom_site_occupancy
  Li  Li0  1  0.00000000  0.07795600  0.75000000  1
  Li  Li1  1  0.00000000  0.34942000  0.75000000  1
  Li  Li2  1  0.00000000  0.65058000  0.25000000  1
  Li  Li3  1  0.00000000  0.92204400  0.25000000  1
  Li  Li4  1  0.50000000  0.57795600  0.75000000  1
  Li  Li5  1  0.50000000  0.84942000  0.75000000  1
  Li  Li6  1  0.50000000  0.15058000  0.25000000  1
  Li  Li7  1  0.50000000  0.42204400  0.25000000  1
  Cr  Cr8  1  0.25000000  0.75000000  0.50000000  1
  Cr  Cr9  1  0.75000000  0.75000000  0.00000000  1
  Cr  Cr10  1  0.75000000  0.25000000  0.50000000  1
  Cr  Cr11  1  0.25000000  0.25000000  0.00000000  1
  Si  Si12  1  0.78319050  0.55920650  0.66199300  1
  Si  Si13  1  0.78319050  0.44079350  0.16199300  1
  Si  Si14  1  0.95445450  0.79343850  0.56327000  1
  Si  Si15  1  0.04554550  0.79343850  0.93673000  1
  Si  Si16  1  0.95445450  0.20656150  0.06327000  1
  Si  Si17  1  0.04554550  0.20656150  0.43673000  1
  Si  Si18  1  0.21680950  0.55920650  0.83800700  1
  Si  Si19  1  0.21680950  0.44079350  0.33800700  1
  Si  Si20  1  0.28319050  0.05920650  0.66199300  1
  Si  Si21  1  0.28319050  0.94079350  0.16199300  1
  Si  Si22  1  0.45445450  0.29343850  0.56327000  1
  Si  Si23  1  0.54554550  0.29343850  0.93673000  1
  Si  Si24  1  0.45445450  0.70656150  0.06327000  1
  Si  Si25  1  0.54554550  0.70656150  0.43673000  1
  Si  Si26  1  0.71680950  0.05920650  0.83800700  1
  Si  Si27  1  0.71680950  0.94079350  0.33800700  1
  O  O28  1  0.64942450  0.59475050  0.53356300  1
  O  O29  1  0.77338950  0.62052950  0.84151000  1
  O  O30  1  0.64942450  0.40524950  0.03356300  1
  O  O31  1  0.77338950  0.37947050  0.34151000  1
  O  O32  1  0.80712900  0.39170300  0.67618400  1
  O  O33  1  0.80712900  0.60829700  0.17618400  1
  O  O34  1  0.89836250  0.63794750  0.59001600  1
  O  O35  1  0.94019100  0.20923100  0.55218200  1
  O  O36  1  0.89836250  0.36205250  0.09001600  1
  O  O37  1  0.00000000  0.86649700  0.75000000  1
  O  O38  1  0.05980900  0.20923100  0.94781800  1
  O  O39  1  0.94019100  0.79076900  0.05218200  1
  O  O40  1  0.00000000  0.13350300  0.25000000  1
  O  O41  1  0.10163750  0.63794750  0.90998400  1
  O  O42  1  0.05980900  0.79076900  0.44781800  1
  O  O43  1  0.10163750  0.36205250  0.40998400  1
  O  O44  1  0.19287100  0.39170300  0.82381600  1
  O  O45  1  0.19287100  0.60829700  0.32381600  1
  O  O46  1  0.22661050  0.62052950  0.65849000  1
  O  O47  1  0.35057550  0.59475050  0.96643700  1
  O  O48  1  0.22661050  0.37947050  0.15849000  1
  O  O49  1  0.35057550  0.40524950  0.46643700  1
  O  O50  1  0.14942450  0.09475050  0.53356300  1
  O  O51  1  0.27338950  0.12052950  0.84151000  1
  O  O52  1  0.14942450  0.90524950  0.03356300  1
  O  O53  1  0.27338950  0.87947050  0.34151000  1
  O  O54  1  0.30712900  0.89170300  0.67618400  1
  O  O55  1  0.30712900  0.10829700  0.17618400  1
  O  O56  1  0.39836250  0.13794750  0.59001600  1
  O  O57  1  0.44019100  0.70923100  0.55218200  1
  O  O58  1  0.39836250  0.86205250  0.09001600  1
  O  O59  1  0.50000000  0.36649700  0.75000000  1
  O  O60  1  0.55980900  0.70923100  0.94781800  1
  O  O61  1  0.44019100  0.29076900  0.05218200  1
  O  O62  1  0.50000000  0.63350300  0.25000000  1
  O  O63  1  0.60163750  0.13794750  0.90998400  1
  O  O64  1  0.55980900  0.29076900  0.44781800  1
  O  O65  1  0.60163750  0.86205250  0.40998400  1
  O  O66  1  0.69287100  0.89170300  0.82381600  1
  O  O67  1  0.69287100  0.10829700  0.32381600  1
  O  O68  1  0.72661050  0.12052950  0.65849000  1
  O  O69  1  0.85057550  0.09475050  0.96643700  1
  O  O70  1  0.72661050  0.87947050  0.15849000  1
  O  O71  1  0.85057550  0.90524950  0.46643700  1
