# generated using pymatgen
data_Li2FeCuO4
_symmetry_space_group_name_H-M   'P 1'
_cell_length_a   5.92196150
_cell_length_b   5.93391048
_cell_length_c   8.36440743
_cell_angle_alpha   90.00000000
_cell_angle_beta   90.00000000
_cell_angle_gamma   90.00000000
_symmetry_Int_Tables_number   1
_chemical_formula_structural   Li2FeCuO4
_chemical_formula_sum   'Li8 Fe4 Cu4 O16'
_cell_volume   293.92853426
_cell_formula_units_Z   4
loop_
 _symmetry_equiv_pos_site_id
 _symmetry_equiv_pos_as_xyz
  1  'x, y, z'
loop_
 _atom_site_type_symbol
 _atom_site_label
 _atom_site_symmetry_multiplicity
 _atom_site_fract_x
 _atom_site_fract_y
 _atom_site_fract_z
 _atom_site_occupancy
  Li  Li0  1  0.25000000  0.75000000  0.25000000  1
  Li  Li1  1  0.50000000  0.00000000  0.00000000  1
  Li  Li2  1  0.25000000  0.25000000  0.75000000  1
  Li  Li3  1  0.00000000  0.00000000  0.50000000  1
  Li  Li4  1  0.75000000  0.25000000  0.75000000  1
  Li  Li5  1  0.00000000  0.50000000  0.50000000  1
  Li  Li6  1  0.75000000  0.75000000  0.25000000  1
  Li  Li7  1  0.50000000  0.50000000  0.00000000  1
  Fe  Fe8  1  0.75000000  0.75000000  0.75000000  1
  Fe  Fe9  1  0.25000000  0.75000000  0.75000000  1
  Fe  Fe10  1  0.25000000  0.25000000  0.25000000  1
  Fe  Fe11  1  0.75000000  0.25000000  0.25000000  1
  Cu  Cu12  1  0.00000000  0.50000000  0.00000000  1
  Cu  Cu13  1  0.50000000  0.50000000  0.50000000  1
  Cu  Cu14  1  0.50000000  0.00000000  0.50000000  1
  Cu  Cu15  1  0.00000000  0.00000000  0.00000000  1
  O  O16  1  0.00000000  0.98764650  0.75504400  1
  O  O17  1  0.23638600  0.75000000  0.99456500  1
  O  O18  1  0.00000000  0.51235350  0.75504400  1
  O  O19  1  0.26361400  0.25000000  0.49456500  1
  O  O20  1  0.23638600  0.25000000  0.00543500  1
  O  O21  1  0.50000000  0.98764650  0.74495600  1
  O  O22  1  0.26361400  0.75000000  0.50543500  1
  O  O23  1  0.50000000  0.51235350  0.74495600  1
  O  O24  1  0.50000000  0.48764650  0.25504400  1
  O  O25  1  0.73638600  0.25000000  0.49456500  1
  O  O26  1  0.50000000  0.01235350  0.25504400  1
  O  O27  1  0.76361400  0.75000000  0.99456500  1
  O  O28  1  0.73638600  0.75000000  0.50543500  1
  O  O29  1  0.00000000  0.48764650  0.24495600  1
  O  O30  1  0.76361400  0.25000000  0.00543500  1
  O  O31  1  0.00000000  0.01235350  0.24495600  1
