# generated using pymatgen
data_Ni6OF11
_symmetry_space_group_name_H-M   'P 1'
_cell_length_a   6.61589600
_cell_length_b   6.66601600
_cell_length_c   9.33444800
_cell_angle_alpha   90.00000000
_cell_angle_beta   90.00000000
_cell_angle_gamma   90.00000000
_symmetry_Int_Tables_number   1
_chemical_formula_structural   Ni6OF11
_chemical_formula_sum   'Ni12 O2 F22'
_cell_volume   411.66473217
_cell_formula_units_Z   2
loop_
 _symmetry_equiv_pos_site_id
 _symmetry_equiv_pos_as_xyz
  1  'x, y, z'
loop_
 _atom_site_type_symbol
 _atom_site_label
 _atom_site_symmetry_multiplicity
 _atom_site_fract_x
 _atom_site_fract_y
 _atom_site_fract_z
 _atom_site_occupancy
  Ni  Ni0  1  0.00012200  0.00000000  0.50000000  1
  Ni  Ni1  1  0.00535800  0.00000000  0.16270800  1
  Ni  Ni2  1  0.00535800  0.00000000  0.83729200  1
  Ni  Ni3  1  0.48668100  0.00000000  0.00000000  1
  Ni  Ni4  1  0.50280100  0.00000000  0.66671400  1
  Ni  Ni5  1  0.50280100  0.00000000  0.33328600  1
  Ni  Ni6  1  0.50012200  0.50000000  0.50000000  1
  Ni  Ni7  1  0.50535800  0.50000000  0.16270800  1
  Ni  Ni8  1  0.50535800  0.50000000  0.83729200  1
  Ni  Ni9  1  0.98668100  0.50000000  0.00000000  1
  Ni  Ni10  1  0.00280100  0.50000000  0.66671400  1
  Ni  Ni11  1  0.00280100  0.50000000  0.33328600  1
  O  O12  1  0.19297100  0.00000000  0.00000000  1
  O  O13  1  0.69297100  0.50000000  0.00000000  1
  F  F14  1  0.19790900  0.00000000  0.66697000  1
  F  F15  1  0.19790900  0.00000000  0.33303000  1
  F  F16  1  0.49895500  0.80364200  0.83342900  1
  F  F17  1  0.49895500  0.80364200  0.16657100  1
  F  F18  1  0.50112350  0.80355750  0.50000000  1
  F  F19  1  0.49895500  0.19635800  0.83342900  1
  F  F20  1  0.49895500  0.19635800  0.16657100  1
  F  F21  1  0.50112350  0.19644250  0.50000000  1
  F  F22  1  0.80785300  0.00000000  0.67002800  1
  F  F23  1  0.79428900  0.00000000  0.00000000  1
  F  F24  1  0.80785300  0.00000000  0.32997200  1
  F  F25  1  0.69790900  0.50000000  0.66697000  1
  F  F26  1  0.69790900  0.50000000  0.33303000  1
  F  F27  1  0.99895500  0.30364200  0.83342900  1
  F  F28  1  0.99895500  0.30364200  0.16657100  1
  F  F29  1  0.00112350  0.30355750  0.50000000  1
  F  F30  1  0.99895500  0.69635800  0.83342900  1
  F  F31  1  0.99895500  0.69635800  0.16657100  1
  F  F32  1  0.00112350  0.69644250  0.50000000  1
  F  F33  1  0.30785300  0.50000000  0.67002800  1
  F  F34  1  0.29428900  0.50000000  0.00000000  1
  F  F35  1  0.30785300  0.50000000  0.32997200  1
