# generated using pymatgen
data_Fe(CoO2)2
_symmetry_space_group_name_H-M   'P 1'
_cell_length_a   6.00203832
_cell_length_b   6.01734011
_cell_length_c   8.30039000
_cell_angle_alpha   90.00000000
_cell_angle_beta   90.00000000
_cell_angle_gamma   90.00000000
_symmetry_Int_Tables_number   1
_chemical_formula_structural   Fe(CoO2)2
_chemical_formula_sum   'Fe4 Co8 O16'
_cell_volume   299.77942499
_cell_formula_units_Z   4
loop_
 _symmetry_equiv_pos_site_id
 _symmetry_equiv_pos_as_xyz
  1  'x, y, z'
loop_
 _atom_site_type_symbol
 _atom_site_label
 _atom_site_symmetry_multiplicity
 _atom_site_fract_x
 _atom_site_fract_y
 _atom_site_fract_z
 _atom_site_occupancy
  Fe  Fe0  1  0.50000000  0.00000000  0.50000000  1
  Fe  Fe1  1  0.50000000  0.50000000  0.50000000  1
  Fe  Fe2  1  0.00000000  0.50000000  0.00000000  1
  Fe  Fe3  1  0.00000000  0.00000000  0.00000000  1
  Co  Co4  1  0.25000000  0.25000000  0.25000000  1
  Co  Co5  1  0.00000000  0.75000000  0.37838800  1
  Co  Co6  1  0.00000000  0.25000000  0.62161200  1
  Co  Co7  1  0.25000000  0.75000000  0.75000000  1
  Co  Co8  1  0.75000000  0.75000000  0.75000000  1
  Co  Co9  1  0.50000000  0.25000000  0.87838800  1
  Co  Co10  1  0.50000000  0.75000000  0.12161200  1
  Co  Co11  1  0.75000000  0.25000000  0.25000000  1
  O  O12  1  0.50000000  0.48105200  0.25870700  1
  O  O13  1  0.50000000  0.01894800  0.25870700  1
  O  O14  1  0.73146350  0.25000000  0.48473750  1
  O  O15  1  0.26853650  0.25000000  0.48473750  1
  O  O16  1  0.73146350  0.75000000  0.51526250  1
  O  O17  1  0.26853650  0.75000000  0.51526250  1
  O  O18  1  0.50000000  0.98105200  0.74129300  1
  O  O19  1  0.50000000  0.51894800  0.74129300  1
  O  O20  1  0.00000000  0.98105200  0.75870700  1
  O  O21  1  0.00000000  0.51894800  0.75870700  1
  O  O22  1  0.23146350  0.75000000  0.98473750  1
  O  O23  1  0.76853650  0.75000000  0.98473750  1
  O  O24  1  0.23146350  0.25000000  0.01526250  1
  O  O25  1  0.76853650  0.25000000  0.01526250  1
  O  O26  1  0.00000000  0.48105200  0.24129300  1
  O  O27  1  0.00000000  0.01894800  0.24129300  1
