# generated using pymatgen
data_LiLa3Ti4O12
_symmetry_space_group_name_H-M   'P 1'
_cell_length_a   7.95305200
_cell_length_b   7.80082000
_cell_length_c   7.83156784
_cell_angle_alpha   90.00000000
_cell_angle_beta   90.64862880
_cell_angle_gamma   90.00000000
_symmetry_Int_Tables_number   1
_chemical_formula_structural   LiLa3Ti4O12
_chemical_formula_sum   'Li2 La6 Ti8 O24'
_cell_volume   485.84189620
_cell_formula_units_Z   2
loop_
 _symmetry_equiv_pos_site_id
 _symmetry_equiv_pos_as_xyz
  1  'x, y, z'
loop_
 _atom_site_type_symbol
 _atom_site_label
 _atom_site_symmetry_multiplicity
 _atom_site_fract_x
 _atom_site_fract_y
 _atom_site_fract_z
 _atom_site_occupancy
  Li  Li0  1  0.17097300  0.00000000  0.57578100  1
  Li  Li1  1  0.67097300  0.50000000  0.57578100  1
  La  La2  1  0.74674100  0.00000000  0.00340600  1
  La  La3  1  0.74605400  0.00000000  0.50154600  1
  La  La4  1  0.25012600  0.00000000  0.01317200  1
  La  La5  1  0.24674100  0.50000000  0.00340600  1
  La  La6  1  0.24605400  0.50000000  0.50154600  1
  La  La7  1  0.75012600  0.50000000  0.01317200  1
  Ti  Ti8  1  0.49554800  0.24588100  0.74816000  1
  Ti  Ti9  1  0.50143050  0.24992550  0.25922800  1
  Ti  Ti10  1  0.49554800  0.75411900  0.74816000  1
  Ti  Ti11  1  0.50143050  0.75007450  0.25922800  1
  Ti  Ti12  1  0.99554800  0.74588100  0.74816000  1
  Ti  Ti13  1  0.00143050  0.74992550  0.25922800  1
  Ti  Ti14  1  0.99554800  0.25411900  0.74816000  1
  Ti  Ti15  1  0.00143050  0.25007450  0.25922800  1
  O  O16  1  0.99976500  0.00000000  0.80368200  1
  O  O17  1  0.00274800  0.00000000  0.19333300  1
  O  O18  1  0.74864400  0.24904800  0.75739000  1
  O  O19  1  0.75248950  0.23904450  0.24063700  1
  O  O20  1  0.50468400  0.30688500  0.50261900  1
  O  O21  1  0.49817450  0.19756650  0.00172100  1
  O  O22  1  0.74864400  0.75095200  0.75739000  1
  O  O23  1  0.75248950  0.76095550  0.24063700  1
  O  O24  1  0.50831500  0.00000000  0.70499200  1
  O  O25  1  0.50723900  0.00000000  0.29467500  1
  O  O26  1  0.49817450  0.80243350  0.00172100  1
  O  O27  1  0.50468400  0.69311500  0.50261900  1
  O  O28  1  0.49976500  0.50000000  0.80368200  1
  O  O29  1  0.50274800  0.50000000  0.19333300  1
  O  O30  1  0.24864400  0.74904800  0.75739000  1
  O  O31  1  0.25248950  0.73904450  0.24063700  1
  O  O32  1  0.00468400  0.80688500  0.50261900  1
  O  O33  1  0.99817450  0.69756650  0.00172100  1
  O  O34  1  0.24864400  0.25095200  0.75739000  1
  O  O35  1  0.25248950  0.26095550  0.24063700  1
  O  O36  1  0.00831500  0.50000000  0.70499200  1
  O  O37  1  0.00723900  0.50000000  0.29467500  1
  O  O38  1  0.99817450  0.30243350  0.00172100  1
  O  O39  1  0.00468400  0.19311500  0.50261900  1
