# generated using pymatgen
data_V2Bi4O11
_symmetry_space_group_name_H-M   'P 1'
_cell_length_a   5.71642800
_cell_length_b   11.32979700
_cell_length_c   8.13828635
_cell_angle_alpha   90.00000000
_cell_angle_beta   109.18124487
_cell_angle_gamma   90.00000000
_symmetry_Int_Tables_number   1
_chemical_formula_structural   V2Bi4O11
_chemical_formula_sum   'V4 Bi8 O22'
_cell_volume   497.82238867
_cell_formula_units_Z   2
loop_
 _symmetry_equiv_pos_site_id
 _symmetry_equiv_pos_as_xyz
  1  'x, y, z'
loop_
 _atom_site_type_symbol
 _atom_site_label
 _atom_site_symmetry_multiplicity
 _atom_site_fract_x
 _atom_site_fract_y
 _atom_site_fract_z
 _atom_site_occupancy
  V  V0  1  0.91920300  0.24114300  0.00301900  1
  V  V1  1  0.49026100  0.48770000  0.97713300  1
  V  V2  1  0.08079700  0.74114300  0.99698100  1
  V  V3  1  0.50973900  0.98770000  0.02286700  1
  Bi  Bi4  1  0.25692400  0.24757500  0.65496300  1
  Bi  Bi5  1  0.59880000  0.25346100  0.33094900  1
  Bi  Bi6  1  0.20051000  0.50275700  0.34637700  1
  Bi  Bi7  1  0.84802500  0.49388400  0.66251200  1
  Bi  Bi8  1  0.74307600  0.74757500  0.34503700  1
  Bi  Bi9  1  0.40120000  0.75346100  0.66905100  1
  Bi  Bi10  1  0.15197500  0.99388400  0.33748800  1
  Bi  Bi11  1  0.79949000  0.00275700  0.65362300  1
  O  O12  1  0.34444300  0.08940200  0.09349000  1
  O  O13  1  0.49040100  0.12219800  0.49862600  1
  O  O14  1  0.97030900  0.11249100  0.47706100  1
  O  O15  1  0.78271400  0.11610300  0.05335000  1
  O  O16  1  0.15786200  0.28919600  0.18467600  1
  O  O17  1  0.96399500  0.21217600  0.80501700  1
  O  O18  1  0.69777200  0.35638800  0.96319000  1
  O  O19  1  0.95896200  0.36282800  0.48822700  1
  O  O20  1  0.47397100  0.37261500  0.51258400  1
  O  O21  1  0.24284500  0.41699700  0.81634000  1
  O  O22  1  0.53909200  0.47978400  0.20006500  1
  O  O23  1  0.65555700  0.58940200  0.90651000  1
  O  O24  1  0.02969100  0.61249100  0.52293900  1
  O  O25  1  0.50959900  0.62219800  0.50137400  1
  O  O26  1  0.21728600  0.61610300  0.94665000  1
  O  O27  1  0.84213800  0.78919600  0.81532400  1
  O  O28  1  0.03600500  0.71217600  0.19498300  1
  O  O29  1  0.30222800  0.85638800  0.03681000  1
  O  O30  1  0.52602900  0.87261500  0.48741600  1
  O  O31  1  0.04103800  0.86282800  0.51177300  1
  O  O32  1  0.46090800  0.97978400  0.79993500  1
  O  O33  1  0.75715500  0.91699700  0.18366000  1
