# generated using pymatgen
data_Li2MnOF3
_symmetry_space_group_name_H-M   'P 1'
_cell_length_a   9.84699626
_cell_length_b   5.82611500
_cell_length_c   5.27460452
_cell_angle_alpha   90.00000000
_cell_angle_beta   90.75391744
_cell_angle_gamma   90.00000000
_symmetry_Int_Tables_number   1
_chemical_formula_structural   Li2MnOF3
_chemical_formula_sum   'Li8 Mn4 O4 F12'
_cell_volume   302.57645501
_cell_formula_units_Z   4
loop_
 _symmetry_equiv_pos_site_id
 _symmetry_equiv_pos_as_xyz
  1  'x, y, z'
loop_
 _atom_site_type_symbol
 _atom_site_label
 _atom_site_symmetry_multiplicity
 _atom_site_fract_x
 _atom_site_fract_y
 _atom_site_fract_z
 _atom_site_occupancy
  Li  Li0  1  0.81583500  0.14994500  0.00630000  1
  Li  Li1  1  0.18416500  0.14994500  0.99370000  1
  Li  Li2  1  0.79350550  0.86577300  0.52720300  1
  Li  Li3  1  0.20649450  0.86577300  0.47279700  1
  Li  Li4  1  0.31583500  0.64994500  0.00630000  1
  Li  Li5  1  0.68416500  0.64994500  0.99370000  1
  Li  Li6  1  0.29350550  0.36577300  0.52720300  1
  Li  Li7  1  0.70649450  0.36577300  0.47279700  1
  Mn  Mn8  1  0.50000000  0.11371500  0.00000000  1
  Mn  Mn9  1  0.50000000  0.86667850  0.50000000  1
  Mn  Mn10  1  0.00000000  0.61371500  0.00000000  1
  Mn  Mn11  1  0.00000000  0.36667850  0.50000000  1
  O  O12  1  0.59697350  0.89100800  0.19254950  1
  O  O13  1  0.40302650  0.89100800  0.80745050  1
  O  O14  1  0.09697350  0.39100800  0.19254950  1
  O  O15  1  0.90302650  0.39100800  0.80745050  1
  F  F16  1  0.63117300  0.35226650  0.12538400  1
  F  F17  1  0.36882700  0.35226650  0.87461600  1
  F  F18  1  0.14031800  0.13997350  0.63665250  1
  F  F19  1  0.85968200  0.13997350  0.36334750  1
  F  F20  1  0.63479700  0.11083100  0.66664650  1
  F  F21  1  0.36520300  0.11083100  0.33335350  1
  F  F22  1  0.13117300  0.85226650  0.12538400  1
  F  F23  1  0.86882700  0.85226650  0.87461600  1
  F  F24  1  0.64031800  0.63997350  0.63665250  1
  F  F25  1  0.35968200  0.63997350  0.36334750  1
  F  F26  1  0.13479700  0.61083100  0.66664650  1
  F  F27  1  0.86520300  0.61083100  0.33335350  1
