# generated using pymatgen
data_V4O5F7
_symmetry_space_group_name_H-M   'P 1'
_cell_length_a   9.25882969
_cell_length_b   5.31613200
_cell_length_c   8.90390580
_cell_angle_alpha   90.00000000
_cell_angle_beta   106.96898849
_cell_angle_gamma   90.00000000
_symmetry_Int_Tables_number   1
_chemical_formula_structural   V4O5F7
_chemical_formula_sum   'V8 O10 F14'
_cell_volume   419.17996803
_cell_formula_units_Z   2
loop_
 _symmetry_equiv_pos_site_id
 _symmetry_equiv_pos_as_xyz
  1  'x, y, z'
loop_
 _atom_site_type_symbol
 _atom_site_label
 _atom_site_symmetry_multiplicity
 _atom_site_fract_x
 _atom_site_fract_y
 _atom_site_fract_z
 _atom_site_occupancy
  V  V0  1  0.61826700  0.13443300  0.37548500  1
  V  V1  1  0.38173300  0.13443300  0.62451500  1
  V  V2  1  0.62356250  0.58349050  0.86203400  1
  V  V3  1  0.37643750  0.58349050  0.13796600  1
  V  V4  1  0.11826700  0.63443300  0.37548500  1
  V  V5  1  0.88173300  0.63443300  0.62451500  1
  V  V6  1  0.12356250  0.08349050  0.86203400  1
  V  V7  1  0.87643750  0.08349050  0.13796600  1
  O  O8  1  0.75509750  0.05211350  0.24749600  1
  O  O9  1  0.50000000  0.19310300  0.50000000  1
  O  O10  1  0.49673350  0.34310950  0.20328400  1
  O  O11  1  0.50326650  0.34310950  0.79671600  1
  O  O12  1  0.74490250  0.55211350  0.75250400  1
  O  O13  1  0.25509750  0.55211350  0.24749600  1
  O  O14  1  0.00000000  0.69310300  0.50000000  1
  O  O15  1  0.99673350  0.84310950  0.20328400  1
  O  O16  1  0.00326650  0.84310950  0.79671600  1
  O  O17  1  0.24490250  0.05211350  0.75250400  1
  F  F18  1  0.50145550  0.82611950  0.71573400  1
  F  F19  1  0.49854450  0.82611950  0.28426600  1
  F  F20  1  0.74915600  0.42559700  0.45464800  1
  F  F21  1  0.74889150  0.43117550  0.04316900  1
  F  F22  1  0.50000000  0.71480100  0.00000000  1
  F  F23  1  0.75110850  0.93117550  0.95683100  1
  F  F24  1  0.75084400  0.92559700  0.54535200  1
  F  F25  1  0.00145550  0.32611950  0.71573400  1
  F  F26  1  0.99854450  0.32611950  0.28426600  1
  F  F27  1  0.24915600  0.92559700  0.45464800  1
  F  F28  1  0.24889150  0.93117550  0.04316900  1
  F  F29  1  0.00000000  0.21480100  0.00000000  1
  F  F30  1  0.25110850  0.43117550  0.95683100  1
  F  F31  1  0.25084400  0.42559700  0.54535200  1
