# generated using pymatgen
data_Li2MnFe(BO3)2
_symmetry_space_group_name_H-M   'P 1'
_cell_length_a   8.25987400
_cell_length_b   3.16164600
_cell_length_c   14.30769806
_cell_angle_alpha   90.00000000
_cell_angle_beta   90.02209706
_cell_angle_gamma   90.00000000
_symmetry_Int_Tables_number   1
_chemical_formula_structural   Li2MnFe(BO3)2
_chemical_formula_sum   'Li6 Mn3 Fe3 B6 O18'
_cell_volume   373.64261117
_cell_formula_units_Z   3
loop_
 _symmetry_equiv_pos_site_id
 _symmetry_equiv_pos_as_xyz
  1  'x, y, z'
loop_
 _atom_site_type_symbol
 _atom_site_label
 _atom_site_symmetry_multiplicity
 _atom_site_fract_x
 _atom_site_fract_y
 _atom_site_fract_z
 _atom_site_occupancy
  Li  Li0  1  0.29236400  0.50000000  0.00855100  1
  Li  Li1  1  0.33895100  0.50000000  0.64143500  1
  Li  Li2  1  0.36477600  0.50000000  0.34971500  1
  Li  Li3  1  0.79358600  0.50000000  0.50835500  1
  Li  Li4  1  0.84246000  0.50000000  0.14302200  1
  Li  Li5  1  0.86769000  0.50000000  0.84881600  1
  Mn  Mn6  1  0.63300000  0.00000000  0.99417000  1
  Mn  Mn7  1  0.67382300  0.00000000  0.68538900  1
  Mn  Mn8  1  0.69185000  0.00000000  0.32024000  1
  Fe  Fe9  1  0.13766600  0.00000000  0.49597000  1
  Fe  Fe10  1  0.17601900  0.00000000  0.18401400  1
  Fe  Fe11  1  0.18721000  0.00000000  0.82032800  1
  B  B12  1  0.00272700  0.50000000  0.33390500  1
  B  B13  1  0.00122600  0.00000000  0.00082200  1
  B  B14  1  0.00207800  0.50000000  0.66674100  1
  B  B15  1  0.49747300  0.50000000  0.83274300  1
  B  B16  1  0.49889700  0.00000000  0.49913100  1
  B  B17  1  0.49798400  0.50000000  0.16671900  1
  O  O18  1  0.01371400  0.50000000  0.56961300  1
  O  O19  1  0.01930000  0.50000000  0.23693500  1
  O  O20  1  0.13834100  0.50000000  0.39148200  1
  O  O21  1  0.14119100  0.50000000  0.72157100  1
  O  O22  1  0.15372200  0.00000000  0.04219800  1
  O  O23  1  0.34454900  0.50000000  0.87354100  1
  O  O24  1  0.34711300  0.50000000  0.21001300  1
  O  O25  1  0.36132100  0.00000000  0.55581400  1
  O  O26  1  0.48151000  0.00000000  0.40251600  1
  O  O27  1  0.50829000  0.50000000  0.06977400  1
  O  O28  1  0.51290200  0.50000000  0.73579900  1
  O  O29  1  0.63649800  0.50000000  0.88816500  1
  O  O30  1  0.63863800  0.50000000  0.21978900  1
  O  O31  1  0.65273500  0.00000000  0.53919800  1
  O  O32  1  0.84881200  0.50000000  0.37400200  1
  O  O33  1  0.85098500  0.50000000  0.70925100  1
  O  O34  1  0.86324900  0.00000000  0.05667500  1
  O  O35  1  0.98734800  0.00000000  0.90359800  1
