# generated using pymatgen
data_FeOF
_symmetry_space_group_name_H-M   'P 1'
_cell_length_a   9.58588300
_cell_length_b   3.12961100
_cell_length_c   14.30957863
_cell_angle_alpha   90.00000000
_cell_angle_beta   90.05515132
_cell_angle_gamma   90.00000000
_symmetry_Int_Tables_number   1
_chemical_formula_structural   FeOF
_chemical_formula_sum   'Fe12 O12 F12'
_cell_volume   429.28837462
_cell_formula_units_Z   12
loop_
 _symmetry_equiv_pos_site_id
 _symmetry_equiv_pos_as_xyz
  1  'x, y, z'
loop_
 _atom_site_type_symbol
 _atom_site_label
 _atom_site_symmetry_multiplicity
 _atom_site_fract_x
 _atom_site_fract_y
 _atom_site_fract_z
 _atom_site_occupancy
  Fe  Fe0  1  0.00550200  0.00000000  0.00430500  1
  Fe  Fe1  1  0.01160900  0.00000000  0.32855400  1
  Fe  Fe2  1  0.00692000  0.00000000  0.66997000  1
  Fe  Fe3  1  0.22740500  0.50000000  0.16509300  1
  Fe  Fe4  1  0.24516000  0.50000000  0.48174800  1
  Fe  Fe5  1  0.22317500  0.50000000  0.83313500  1
  Fe  Fe6  1  0.49954500  0.00000000  0.34267400  1
  Fe  Fe7  1  0.51224900  0.00000000  0.99688500  1
  Fe  Fe8  1  0.51468600  0.00000000  0.66329400  1
  Fe  Fe9  1  0.78332200  0.50000000  0.17145600  1
  Fe  Fe10  1  0.73051400  0.50000000  0.49685400  1
  Fe  Fe11  1  0.72844900  0.50000000  0.83110800  1
  O  O12  1  0.09974300  0.50000000  0.27111600  1
  O  O13  1  0.09286300  0.50000000  0.93758900  1
  O  O14  1  0.15652600  0.00000000  0.10167200  1
  O  O15  1  0.15143100  0.00000000  0.77004400  1
  O  O16  1  0.14858500  0.00000000  0.43397100  1
  O  O17  1  0.40574400  0.50000000  0.39596000  1
  O  O18  1  0.59742000  0.50000000  0.94047600  1
  O  O19  1  0.59544300  0.50000000  0.60076700  1
  O  O20  1  0.65850100  0.00000000  0.43175900  1
  O  O21  1  0.64891000  0.00000000  0.76961000  1
  O  O22  1  0.85357400  0.00000000  0.23565300  1
  O  O23  1  0.90589200  0.50000000  0.06258600  1
  F  F24  1  0.10066200  0.50000000  0.59683900  1
  F  F25  1  0.35339800  0.00000000  0.22865200  1
  F  F26  1  0.34168100  0.00000000  0.56685900  1
  F  F27  1  0.34786000  0.00000000  0.90149700  1
  F  F28  1  0.40502400  0.50000000  0.06663100  1
  F  F29  1  0.39923000  0.50000000  0.73299300  1
  F  F30  1  0.59890100  0.50000000  0.26355600  1
  F  F31  1  0.65351000  0.00000000  0.10579800  1
  F  F32  1  0.84681400  0.00000000  0.89508800  1
  F  F33  1  0.85141600  0.00000000  0.56756500  1
  F  F34  1  0.90330200  0.50000000  0.40483600  1
  F  F35  1  0.89503300  0.50000000  0.73340900  1
