# generated using pymatgen
data_TiCu(PO4)2
_symmetry_space_group_name_H-M   'P 1'
_cell_length_a   8.61144985
_cell_length_b   8.61144985
_cell_length_c   20.99757226
_cell_angle_alpha   90.00000000
_cell_angle_beta   90.00000000
_cell_angle_gamma   120.00000000
_symmetry_Int_Tables_number   1
_chemical_formula_structural   TiCu(PO4)2
_chemical_formula_sum   'Ti9 Cu9 P18 O72'
_cell_volume   1348.50409639
_cell_formula_units_Z   9
loop_
 _symmetry_equiv_pos_site_id
 _symmetry_equiv_pos_as_xyz
  1  'x, y, z'
loop_
 _atom_site_type_symbol
 _atom_site_label
 _atom_site_symmetry_multiplicity
 _atom_site_fract_x
 _atom_site_fract_y
 _atom_site_fract_z
 _atom_site_occupancy
  Ti  Ti0  1  0.33333333  0.66666667  0.31008167  1
  Ti  Ti1  1  0.33333333  0.66666667  0.52401267  1
  Ti  Ti2  1  0.33333333  0.66666667  0.02332467  1
  Ti  Ti3  1  0.00000000  0.00000000  0.64341500  1
  Ti  Ti4  1  0.00000000  0.00000000  0.85734600  1
  Ti  Ti5  1  0.00000000  0.00000000  0.35665800  1
  Ti  Ti6  1  0.66666667  0.33333333  0.97674833  1
  Ti  Ti7  1  0.66666667  0.33333333  0.19067933  1
  Ti  Ti8  1  0.66666667  0.33333333  0.68999133  1
  Cu  Cu9  1  0.33333333  0.66666667  0.66941667  1
  Cu  Cu10  1  0.33333333  0.66666667  0.81145867  1
  Cu  Cu11  1  0.33333333  0.66666667  0.16720567  1
  Cu  Cu12  1  0.00000000  0.00000000  0.00275000  1
  Cu  Cu13  1  0.00000000  0.00000000  0.14479200  1
  Cu  Cu14  1  0.00000000  0.00000000  0.50053900  1
  Cu  Cu15  1  0.66666667  0.33333333  0.33608333  1
  Cu  Cu16  1  0.66666667  0.33333333  0.47812533  1
  Cu  Cu17  1  0.66666667  0.33333333  0.83387233  1
  P  P18  1  0.71007033  0.70971067  0.24879567  1
  P  P19  1  0.29028933  0.00035967  0.24879567  1
  P  P20  1  0.99964033  0.28992967  0.24879567  1
  P  P21  1  0.66974000  0.04139600  0.08349800  1
  P  P22  1  0.37165600  0.33026000  0.08349800  1
  P  P23  1  0.95860400  0.62834400  0.08349800  1
  P  P24  1  0.37673700  0.04304400  0.58212900  1
  P  P25  1  0.95695600  0.33369300  0.58212900  1
  P  P26  1  0.66630700  0.62326300  0.58212900  1
  P  P27  1  0.33640667  0.37472933  0.41683133  1
  P  P28  1  0.03832267  0.66359333  0.41683133  1
  P  P29  1  0.62527067  0.96167733  0.41683133  1
  P  P30  1  0.04340367  0.37637733  0.91546233  1
  P  P31  1  0.62362267  0.66702633  0.91546233  1
  P  P32  1  0.33297367  0.95659633  0.91546233  1
  P  P33  1  0.00307333  0.70806267  0.75016467  1
  P  P34  1  0.70498933  0.99692667  0.75016467  1
  P  P35  1  0.29193733  0.29501067  0.75016467  1
  O  O36  1  0.52176033  0.66978367  0.97607567  1
  O  O37  1  0.33021633  0.85197667  0.97607567  1
  O  O38  1  0.14802333  0.47823967  0.97607567  1
  O  O39  1  0.68945967  0.51898333  0.25483533  1
  O  O40  1  0.79726233  0.80415967  0.18782767  1
  O  O41  1  0.51772500  0.68514200  0.24831100  1
  O  O42  1  0.48101667  0.17047633  0.25483533  1
  O  O43  1  0.31485800  0.83258300  0.24831100  1
  O  O44  1  0.33217467  0.47744733  0.47667033  1
  O  O45  1  0.16741700  0.48227500  0.24831100  1
  O  O46  1  0.83911867  0.02550133  0.07719633  1
  O  O47  1  0.14527267  0.66782533  0.47667033  1
  O  O48  1  0.19584033  0.99310267  0.18782767  1
  O  O49  1  0.82952367  0.31054033  0.25483533  1
  O  O50  1  0.49742567  0.85376033  0.08752633  1
  O  O51  1  0.00689733  0.20273767  0.18782767  1
  O  O52  1  0.35633467  0.50257433  0.08752633  1
  O  O53  1  0.18638267  0.16088133  0.07719633  1
  O  O54  1  0.14623967  0.64366533  0.08752633  1
  O  O55  1  0.52255267  0.85472733  0.47667033  1
  O  O56  1  0.97449867  0.81361733  0.07719633  1
  O  O57  1  0.52123267  0.85474033  0.35742633  1
  O  O58  1  0.33350767  0.47876733  0.35742633  1
  O  O59  1  0.14525967  0.66649233  0.35742633  1
  O  O60  1  0.18842700  0.00311700  0.30940900  1
  O  O61  1  0.99688300  0.18531000  0.30940900  1
  O  O62  1  0.81469000  0.81157300  0.30940900  1
  O  O63  1  0.35612633  0.85231667  0.58816867  1
  O  O64  1  0.46392900  0.13749300  0.52116100  1
  O  O65  1  0.18439167  0.01847533  0.58164433  1
  O  O66  1  0.14768333  0.50380967  0.58816867  1
  O  O67  1  0.98152467  0.16591633  0.58164433  1
  O  O68  1  0.99884133  0.81078067  0.81000367  1
  O  O69  1  0.83408367  0.81560833  0.58164433  1
  O  O70  1  0.50578533  0.35883467  0.41052967  1
  O  O71  1  0.81193933  0.00115867  0.81000367  1
  O  O72  1  0.86250700  0.32643600  0.52116100  1
  O  O73  1  0.49619033  0.64387367  0.58816867  1
  O  O74  1  0.16409233  0.18709367  0.42085967  1
  O  O75  1  0.67356400  0.53607100  0.52116100  1
  O  O76  1  0.02300133  0.83590767  0.42085967  1
  O  O77  1  0.85304933  0.49421467  0.41052967  1
  O  O78  1  0.81290633  0.97699867  0.42085967  1
  O  O79  1  0.18921933  0.18806067  0.81000367  1
  O  O80  1  0.64116533  0.14695067  0.41052967  1
  O  O81  1  0.18789933  0.18807367  0.69075967  1
  O  O82  1  0.00017433  0.81210067  0.69075967  1
  O  O83  1  0.81192633  0.99982567  0.69075967  1
  O  O84  1  0.85509367  0.33645033  0.64274233  1
  O  O85  1  0.66354967  0.51864333  0.64274233  1
  O  O86  1  0.48135667  0.14490633  0.64274233  1
  O  O87  1  0.02279300  0.18565000  0.92150200  1
  O  O88  1  0.13059567  0.47082633  0.85449433  1
  O  O89  1  0.85105833  0.35180867  0.91497767  1
  O  O90  1  0.81435000  0.83714300  0.92150200  1
  O  O91  1  0.64819133  0.49924967  0.91497767  1
  O  O92  1  0.66550800  0.14411400  0.14333700  1
  O  O93  1  0.50075033  0.14894167  0.91497767  1
  O  O94  1  0.17245200  0.69216800  0.74386300  1
  O  O95  1  0.47860600  0.33449200  0.14333700  1
  O  O96  1  0.52917367  0.65976933  0.85449433  1
  O  O97  1  0.16285700  0.97720700  0.92150200  1
  O  O98  1  0.83075900  0.52042700  0.75419300  1
  O  O99  1  0.34023067  0.86940433  0.85449433  1
  O  O100  1  0.68966800  0.16924100  0.75419300  1
  O  O101  1  0.51971600  0.82754800  0.74386300  1
  O  O102  1  0.47957300  0.31033200  0.75419300  1
  O  O103  1  0.85588600  0.52139400  0.14333700  1
  O  O104  1  0.30783200  0.48028400  0.74386300  1
  O  O105  1  0.85456600  0.52140700  0.02409300  1
  O  O106  1  0.66684100  0.14543400  0.02409300  1
  O  O107  1  0.47859300  0.33315900  0.02409300  1
