# generated using pymatgen
data_LiVNiO4
_symmetry_space_group_name_H-M   'P 1'
_cell_length_a   4.93077800
_cell_length_b   6.02826700
_cell_length_c   10.40339300
_cell_angle_alpha   90.00000000
_cell_angle_beta   90.00000000
_cell_angle_gamma   90.00000000
_symmetry_Int_Tables_number   1
_chemical_formula_structural   LiVNiO4
_chemical_formula_sum   'Li4 V4 Ni4 O16'
_cell_volume   309.23093543
_cell_formula_units_Z   4
loop_
 _symmetry_equiv_pos_site_id
 _symmetry_equiv_pos_as_xyz
  1  'x, y, z'
loop_
 _atom_site_type_symbol
 _atom_site_label
 _atom_site_symmetry_multiplicity
 _atom_site_fract_x
 _atom_site_fract_y
 _atom_site_fract_z
 _atom_site_occupancy
  Li  Li0  1  0.50000000  0.50000000  0.00000000  1
  Li  Li1  1  0.00000000  0.50000000  0.50000000  1
  Li  Li2  1  0.50000000  0.00000000  0.00000000  1
  Li  Li3  1  0.00000000  0.00000000  0.50000000  1
  V  V4  1  0.93049150  0.75000000  0.90542700  1
  V  V5  1  0.56950850  0.75000000  0.40542700  1
  V  V6  1  0.43049150  0.25000000  0.59457300  1
  V  V7  1  0.06950850  0.25000000  0.09457300  1
  Ni  Ni8  1  0.00650150  0.75000000  0.23091800  1
  Ni  Ni9  1  0.99349850  0.25000000  0.76908200  1
  Ni  Ni10  1  0.49349850  0.75000000  0.73091800  1
  Ni  Ni11  1  0.50650150  0.25000000  0.26908200  1
  O  O12  1  0.70282850  0.75000000  0.55983500  1
  O  O13  1  0.79717150  0.75000000  0.05983500  1
  O  O14  1  0.29717150  0.25000000  0.44016500  1
  O  O15  1  0.20282850  0.25000000  0.94016500  1
  O  O16  1  0.28273450  0.75000000  0.90386200  1
  O  O17  1  0.21726550  0.75000000  0.40386200  1
  O  O18  1  0.78273450  0.25000000  0.59613800  1
  O  O19  1  0.71726550  0.25000000  0.09613800  1
  O  O20  1  0.77316650  0.52177600  0.83060900  1
  O  O21  1  0.72683350  0.52177600  0.33060900  1
  O  O22  1  0.77316650  0.97822400  0.83060900  1
  O  O23  1  0.72683350  0.97822400  0.33060900  1
  O  O24  1  0.22683350  0.02177600  0.16939100  1
  O  O25  1  0.27316650  0.02177600  0.66939100  1
  O  O26  1  0.27316650  0.47822400  0.66939100  1
  O  O27  1  0.22683350  0.47822400  0.16939100  1
