# generated using pymatgen
data_TbCeO4
_symmetry_space_group_name_H-M   'P 1'
_cell_length_a   10.94727000
_cell_length_b   10.94727000
_cell_length_c   10.94727000
_cell_angle_alpha   90.00000000
_cell_angle_beta   90.00000000
_cell_angle_gamma   90.00000000
_symmetry_Int_Tables_number   1
_chemical_formula_structural   TbCeO4
_chemical_formula_sum   'Tb16 Ce16 O64'
_cell_volume   1311.95061833
_cell_formula_units_Z   16
loop_
 _symmetry_equiv_pos_site_id
 _symmetry_equiv_pos_as_xyz
  1  'x, y, z'
loop_
 _atom_site_type_symbol
 _atom_site_label
 _atom_site_symmetry_multiplicity
 _atom_site_fract_x
 _atom_site_fract_y
 _atom_site_fract_z
 _atom_site_occupancy
  Tb  Tb0  1  0.12624100  0.37375900  0.87375900  1
  Tb  Tb1  1  0.87375900  0.37375900  0.12624100  1
  Tb  Tb2  1  0.37375900  0.12624100  0.87375900  1
  Tb  Tb3  1  0.62624100  0.12624100  0.12624100  1
  Tb  Tb4  1  0.12624100  0.87375900  0.37375900  1
  Tb  Tb5  1  0.87375900  0.87375900  0.62624100  1
  Tb  Tb6  1  0.37375900  0.62624100  0.37375900  1
  Tb  Tb7  1  0.62624100  0.62624100  0.62624100  1
  Tb  Tb8  1  0.62624100  0.37375900  0.37375900  1
  Tb  Tb9  1  0.37375900  0.37375900  0.62624100  1
  Tb  Tb10  1  0.87375900  0.12624100  0.37375900  1
  Tb  Tb11  1  0.12624100  0.12624100  0.62624100  1
  Tb  Tb12  1  0.62624100  0.87375900  0.87375900  1
  Tb  Tb13  1  0.37375900  0.87375900  0.12624100  1
  Tb  Tb14  1  0.87375900  0.62624100  0.87375900  1
  Tb  Tb15  1  0.12624100  0.62624100  0.12624100  1
  Ce  Ce16  1  0.37535833  0.37535833  0.12464167  1
  Ce  Ce17  1  0.12464167  0.37535833  0.37535833  1
  Ce  Ce18  1  0.12464167  0.12464167  0.12464167  1
  Ce  Ce19  1  0.37535833  0.12464167  0.37535833  1
  Ce  Ce20  1  0.37535833  0.87535833  0.62464167  1
  Ce  Ce21  1  0.12464167  0.87535833  0.87535833  1
  Ce  Ce22  1  0.12464167  0.62464167  0.62464167  1
  Ce  Ce23  1  0.37535833  0.62464167  0.87535833  1
  Ce  Ce24  1  0.87535833  0.37535833  0.62464167  1
  Ce  Ce25  1  0.62464167  0.37535833  0.87535833  1
  Ce  Ce26  1  0.62464167  0.12464167  0.62464167  1
  Ce  Ce27  1  0.87535833  0.12464167  0.87535833  1
  Ce  Ce28  1  0.87535833  0.87535833  0.12464167  1
  Ce  Ce29  1  0.62464167  0.87535833  0.37535833  1
  Ce  Ce30  1  0.62464167  0.62464167  0.12464167  1
  Ce  Ce31  1  0.87535833  0.62464167  0.37535833  1
  O  O32  1  0.25000000  0.00623200  0.25000000  1
  O  O33  1  0.24986000  0.00000000  0.00000000  1
  O  O34  1  0.50000000  0.00000000  0.74986000  1
  O  O35  1  0.00000000  0.00000000  0.00000000  1
  O  O36  1  0.50000000  0.00000000  0.00000000  1
  O  O37  1  0.75014000  0.00000000  0.00000000  1
  O  O38  1  0.50000000  0.00000000  0.25014000  1
  O  O39  1  0.49376800  0.25000000  0.25000000  1
  O  O40  1  0.25000000  0.25000000  0.00623200  1
  O  O41  1  0.25000000  0.25000000  0.75000000  1
  O  O42  1  0.00000000  0.24986000  0.00000000  1
  O  O43  1  0.00623200  0.25000000  0.25000000  1
  O  O44  1  0.25000000  0.25000000  0.25000000  1
  O  O45  1  0.50000000  0.25014000  0.00000000  1
  O  O46  1  0.25000000  0.25000000  0.49376800  1
  O  O47  1  0.25000000  0.49376800  0.25000000  1
  O  O48  1  0.25000000  0.50623200  0.75000000  1
  O  O49  1  0.24986000  0.50000000  0.50000000  1
  O  O50  1  0.50000000  0.50000000  0.24986000  1
  O  O51  1  0.00000000  0.50000000  0.50000000  1
  O  O52  1  0.50000000  0.50000000  0.50000000  1
  O  O53  1  0.75014000  0.50000000  0.50000000  1
  O  O54  1  0.50000000  0.50000000  0.75014000  1
  O  O55  1  0.49376800  0.75000000  0.75000000  1
  O  O56  1  0.25000000  0.75000000  0.50623200  1
  O  O57  1  0.25000000  0.75000000  0.25000000  1
  O  O58  1  0.00000000  0.74986000  0.50000000  1
  O  O59  1  0.00623200  0.75000000  0.75000000  1
  O  O60  1  0.25000000  0.75000000  0.75000000  1
  O  O61  1  0.50000000  0.75014000  0.50000000  1
  O  O62  1  0.25000000  0.75000000  0.99376800  1
  O  O63  1  0.25000000  0.99376800  0.75000000  1
  O  O64  1  0.75000000  0.00623200  0.75000000  1
  O  O65  1  0.74986000  0.00000000  0.50000000  1
  O  O66  1  0.00000000  0.00000000  0.24986000  1
  O  O67  1  0.50000000  0.00000000  0.50000000  1
  O  O68  1  0.00000000  0.00000000  0.50000000  1
  O  O69  1  0.25014000  0.00000000  0.50000000  1
  O  O70  1  0.00000000  0.00000000  0.75014000  1
  O  O71  1  0.99376800  0.25000000  0.75000000  1
  O  O72  1  0.75000000  0.25000000  0.50623200  1
  O  O73  1  0.75000000  0.25000000  0.25000000  1
  O  O74  1  0.50000000  0.24986000  0.50000000  1
  O  O75  1  0.50623200  0.25000000  0.75000000  1
  O  O76  1  0.75000000  0.25000000  0.75000000  1
  O  O77  1  0.00000000  0.25014000  0.50000000  1
  O  O78  1  0.75000000  0.25000000  0.99376800  1
  O  O79  1  0.75000000  0.49376800  0.75000000  1
  O  O80  1  0.75000000  0.50623200  0.25000000  1
  O  O81  1  0.74986000  0.50000000  0.00000000  1
  O  O82  1  0.00000000  0.50000000  0.74986000  1
  O  O83  1  0.50000000  0.50000000  0.00000000  1
  O  O84  1  0.00000000  0.50000000  0.00000000  1
  O  O85  1  0.25014000  0.50000000  0.00000000  1
  O  O86  1  0.00000000  0.50000000  0.25014000  1
  O  O87  1  0.99376800  0.75000000  0.25000000  1
  O  O88  1  0.75000000  0.75000000  0.00623200  1
  O  O89  1  0.75000000  0.75000000  0.75000000  1
  O  O90  1  0.50000000  0.74986000  0.00000000  1
  O  O91  1  0.50623200  0.75000000  0.25000000  1
  O  O92  1  0.75000000  0.75000000  0.25000000  1
  O  O93  1  0.00000000  0.75014000  0.00000000  1
  O  O94  1  0.75000000  0.75000000  0.49376800  1
  O  O95  1  0.75000000  0.99376800  0.25000000  1
