# generated using pymatgen
data_FeCo3O8
_symmetry_space_group_name_H-M   'P 1'
_cell_length_a   5.78380959
_cell_length_b   5.78380959
_cell_length_c   14.23506107
_cell_angle_alpha   90.00000000
_cell_angle_beta   90.00000000
_cell_angle_gamma   120.00000000
_symmetry_Int_Tables_number   1
_chemical_formula_structural   FeCo3O8
_chemical_formula_sum   'Fe3 Co9 O24'
_cell_volume   412.39932053
_cell_formula_units_Z   3
loop_
 _symmetry_equiv_pos_site_id
 _symmetry_equiv_pos_as_xyz
  1  'x, y, z'
loop_
 _atom_site_type_symbol
 _atom_site_label
 _atom_site_symmetry_multiplicity
 _atom_site_fract_x
 _atom_site_fract_y
 _atom_site_fract_z
 _atom_site_occupancy
  Fe  Fe0  1  0.00000000  0.00000000  0.00000000  1
  Fe  Fe1  1  0.66666667  0.33333333  0.33333333  1
  Fe  Fe2  1  0.33333333  0.66666667  0.66666667  1
  Co  Co3  1  0.50000000  0.50000000  0.00000000  1
  Co  Co4  1  0.50000000  0.00000000  0.00000000  1
  Co  Co5  1  0.00000000  0.50000000  0.00000000  1
  Co  Co6  1  0.16666667  0.83333333  0.33333333  1
  Co  Co7  1  0.16666667  0.33333333  0.33333333  1
  Co  Co8  1  0.66666667  0.83333333  0.33333333  1
  Co  Co9  1  0.83333333  0.16666667  0.66666667  1
  Co  Co10  1  0.83333333  0.66666667  0.66666667  1
  Co  Co11  1  0.33333333  0.16666667  0.66666667  1
  O  O12  1  0.01310467  0.50655233  0.26778933  1
  O  O13  1  0.49344767  0.98689533  0.26778933  1
  O  O14  1  0.49344767  0.50655233  0.26778933  1
  O  O15  1  0.00000000  0.00000000  0.26632700  1
  O  O16  1  0.66666667  0.33333333  0.06700633  1
  O  O17  1  0.17321900  0.82678100  0.06554400  1
  O  O18  1  0.17321900  0.34643800  0.06554400  1
  O  O19  1  0.65356200  0.82678100  0.06554400  1
  O  O20  1  0.67977133  0.83988567  0.60112267  1
  O  O21  1  0.16011433  0.32022867  0.60112267  1
  O  O22  1  0.16011433  0.83988567  0.60112267  1
  O  O23  1  0.66666667  0.33333333  0.59966033  1
  O  O24  1  0.33333333  0.66666667  0.40033967  1
  O  O25  1  0.83988567  0.16011433  0.39887733  1
  O  O26  1  0.83988567  0.67977133  0.39887733  1
  O  O27  1  0.32022867  0.16011433  0.39887733  1
  O  O28  1  0.34643800  0.17321900  0.93445600  1
  O  O29  1  0.82678100  0.65356200  0.93445600  1
  O  O30  1  0.82678100  0.17321900  0.93445600  1
  O  O31  1  0.33333333  0.66666667  0.93299367  1
  O  O32  1  0.00000000  0.00000000  0.73367300  1
  O  O33  1  0.50655233  0.49344767  0.73221067  1
  O  O34  1  0.50655233  0.01310467  0.73221067  1
  O  O35  1  0.98689533  0.49344767  0.73221067  1
