# generated using pymatgen
data_LiVP2O7
_symmetry_space_group_name_H-M   'P 1'
_cell_length_a   9.58670800
_cell_length_b   8.19811400
_cell_length_c   13.79415320
_cell_angle_alpha   90.00000000
_cell_angle_beta   106.62638838
_cell_angle_gamma   90.00000000
_symmetry_Int_Tables_number   1
_chemical_formula_structural   LiVP2O7
_chemical_formula_sum   'Li8 V8 P16 O56'
_cell_volume   1038.79664278
_cell_formula_units_Z   8
loop_
 _symmetry_equiv_pos_site_id
 _symmetry_equiv_pos_as_xyz
  1  'x, y, z'
loop_
 _atom_site_type_symbol
 _atom_site_label
 _atom_site_symmetry_multiplicity
 _atom_site_fract_x
 _atom_site_fract_y
 _atom_site_fract_z
 _atom_site_occupancy
  Li  Li0  1  0.28782350  0.50177950  0.66513400  1
  Li  Li1  1  0.71217650  0.50177950  0.83486600  1
  Li  Li2  1  0.28782350  0.49822050  0.16513400  1
  Li  Li3  1  0.71217650  0.49822050  0.33486600  1
  Li  Li4  1  0.78782350  0.00177950  0.66513400  1
  Li  Li5  1  0.21217650  0.00177950  0.83486600  1
  Li  Li6  1  0.78782350  0.99822050  0.16513400  1
  Li  Li7  1  0.21217650  0.99822050  0.33486600  1
  V  V8  1  0.22066400  0.36956500  0.35706200  1
  V  V9  1  0.22066400  0.63043500  0.85706200  1
  V  V10  1  0.77933600  0.36956500  0.14293800  1
  V  V11  1  0.77933600  0.63043500  0.64293800  1
  V  V12  1  0.72066400  0.86956500  0.35706200  1
  V  V13  1  0.72066400  0.13043500  0.85706200  1
  V  V14  1  0.27933600  0.86956500  0.14293800  1
  V  V15  1  0.27933600  0.13043500  0.64293800  1
  P  P16  1  0.92680250  0.79645350  0.86258700  1
  P  P17  1  0.95914300  0.69662800  0.08501500  1
  P  P18  1  0.04085700  0.69662800  0.41498500  1
  P  P19  1  0.92680250  0.20354650  0.36258700  1
  P  P20  1  0.07319750  0.79645350  0.63741300  1
  P  P21  1  0.95914300  0.30337200  0.58501500  1
  P  P22  1  0.04085700  0.30337200  0.91498500  1
  P  P23  1  0.07319750  0.20354650  0.13741300  1
  P  P24  1  0.42680250  0.29645350  0.86258700  1
  P  P25  1  0.45914300  0.19662800  0.08501500  1
  P  P26  1  0.54085700  0.19662800  0.41498500  1
  P  P27  1  0.42680250  0.70354650  0.36258700  1
  P  P28  1  0.57319750  0.29645350  0.63741300  1
  P  P29  1  0.45914300  0.80337200  0.58501500  1
  P  P30  1  0.54085700  0.80337200  0.91498500  1
  P  P31  1  0.57319750  0.70354650  0.13741300  1
  O  O32  1  0.09063900  0.81735900  0.87834100  1
  O  O33  1  0.12940100  0.69792800  0.10785600  1
  O  O34  1  0.90936100  0.81735900  0.62165900  1
  O  O35  1  0.86009000  0.65373400  0.78890200  1
  O  O36  1  0.10105300  0.81478800  0.35471400  1
  O  O37  1  0.34479800  0.45291600  0.82340000  1
  O  O38  1  0.89788800  0.74961300  0.96604400  1
  O  O39  1  0.10052250  0.51867150  0.41427800  1
  O  O40  1  0.89947750  0.51867150  0.08572200  1
  O  O41  1  0.89894700  0.81478800  0.14528600  1
  O  O42  1  0.10211200  0.74961300  0.53395600  1
  O  O43  1  0.12940100  0.30207200  0.60785600  1
  O  O44  1  0.65520200  0.45291600  0.67660000  1
  O  O45  1  0.13991000  0.65373400  0.71109800  1
  O  O46  1  0.86009000  0.34626600  0.28890200  1
  O  O47  1  0.34479800  0.54708400  0.32340000  1
  O  O48  1  0.87059900  0.69792800  0.39214400  1
  O  O49  1  0.89788800  0.25038700  0.46604400  1
  O  O50  1  0.10105300  0.18521200  0.85471400  1
  O  O51  1  0.10052250  0.48132850  0.91427800  1
  O  O52  1  0.89947750  0.48132850  0.58572200  1
  O  O53  1  0.10211200  0.25038700  0.03395600  1
  O  O54  1  0.65520200  0.54708400  0.17660000  1
  O  O55  1  0.89894700  0.18521200  0.64528600  1
  O  O56  1  0.13991000  0.34626600  0.21109800  1
  O  O57  1  0.09063900  0.18264100  0.37834100  1
  O  O58  1  0.87059900  0.30207200  0.89214400  1
  O  O59  1  0.90936100  0.18264100  0.12165900  1
  O  O60  1  0.59063900  0.31735900  0.87834100  1
  O  O61  1  0.62940100  0.19792800  0.10785600  1
  O  O62  1  0.40936100  0.31735900  0.62165900  1
  O  O63  1  0.36009000  0.15373400  0.78890200  1
  O  O64  1  0.60105300  0.31478800  0.35471400  1
  O  O65  1  0.84479800  0.95291600  0.82340000  1
  O  O66  1  0.39788800  0.24961300  0.96604400  1
  O  O67  1  0.60052250  0.01867150  0.41427800  1
  O  O68  1  0.39947750  0.01867150  0.08572200  1
  O  O69  1  0.39894700  0.31478800  0.14528600  1
  O  O70  1  0.60211200  0.24961300  0.53395600  1
  O  O71  1  0.62940100  0.80207200  0.60785600  1
  O  O72  1  0.15520200  0.95291600  0.67660000  1
  O  O73  1  0.63991000  0.15373400  0.71109800  1
  O  O74  1  0.36009000  0.84626600  0.28890200  1
  O  O75  1  0.84479800  0.04708400  0.32340000  1
  O  O76  1  0.37059900  0.19792800  0.39214400  1
  O  O77  1  0.39788800  0.75038700  0.46604400  1
  O  O78  1  0.60105300  0.68521200  0.85471400  1
  O  O79  1  0.60052250  0.98132850  0.91427800  1
  O  O80  1  0.39947750  0.98132850  0.58572200  1
  O  O81  1  0.60211200  0.75038700  0.03395600  1
  O  O82  1  0.15520200  0.04708400  0.17660000  1
  O  O83  1  0.39894700  0.68521200  0.64528600  1
  O  O84  1  0.63991000  0.84626600  0.21109800  1
  O  O85  1  0.59063900  0.68264100  0.37834100  1
  O  O86  1  0.37059900  0.80207200  0.89214400  1
  O  O87  1  0.40936100  0.68264100  0.12165900  1
