# generated using pymatgen
data_Na3V5O10
_symmetry_space_group_name_H-M   'P 1'
_cell_length_a   6.58002315
_cell_length_b   7.25238607
_cell_length_c   10.25659767
_cell_angle_alpha   97.25233930
_cell_angle_beta   104.22869085
_cell_angle_gamma   108.73881105
_symmetry_Int_Tables_number   1
_chemical_formula_structural   Na3V5O10
_chemical_formula_sum   'Na6 V10 O20'
_cell_volume   437.91991987
_cell_formula_units_Z   2
loop_
 _symmetry_equiv_pos_site_id
 _symmetry_equiv_pos_as_xyz
  1  'x, y, z'
loop_
 _atom_site_type_symbol
 _atom_site_label
 _atom_site_symmetry_multiplicity
 _atom_site_fract_x
 _atom_site_fract_y
 _atom_site_fract_z
 _atom_site_occupancy
  Na  Na0  1  0.50000000  0.00000000  0.00000000  1
  Na  Na1  1  0.50000000  0.00000000  0.50000000  1
  Na  Na2  1  0.89368500  0.39704300  0.09815100  1
  Na  Na3  1  0.89327900  0.39711000  0.59753900  1
  Na  Na4  1  0.10631500  0.60295700  0.90184900  1
  Na  Na5  1  0.10672100  0.60289000  0.40246100  1
  V  V6  1  0.00000000  0.00000000  0.50000000  1
  V  V7  1  0.00000000  0.00000000  0.00000000  1
  V  V8  1  0.39792100  0.40249500  0.10372800  1
  V  V9  1  0.39493700  0.40097700  0.60018000  1
  V  V10  1  0.60207900  0.59750500  0.89627200  1
  V  V11  1  0.60506300  0.59902300  0.39982000  1
  V  V12  1  0.20377100  0.19754200  0.79874500  1
  V  V13  1  0.20960400  0.19737200  0.30175100  1
  V  V14  1  0.79622900  0.80245800  0.20125500  1
  V  V15  1  0.79039600  0.80262800  0.69824900  1
  O  O16  1  0.89279100  0.07582300  0.14635900  1
  O  O17  1  0.88774000  0.07840900  0.64346700  1
  O  O18  1  0.10720900  0.92417700  0.85364100  1
  O  O19  1  0.11226000  0.92159100  0.35653300  1
  O  O20  1  0.90876200  0.72168900  0.04000700  1
  O  O21  1  0.91800000  0.72497800  0.54837500  1
  O  O22  1  0.09123800  0.27831100  0.95999300  1
  O  O23  1  0.08200000  0.27502200  0.45162500  1
  O  O24  1  0.48506600  0.67128000  0.04435900  1
  O  O25  1  0.48733900  0.67816000  0.55429500  1
  O  O26  1  0.51493400  0.32872000  0.95564100  1
  O  O27  1  0.51266100  0.32184000  0.44570500  1
  O  O28  1  0.31030700  0.12757600  0.13715100  1
  O  O29  1  0.30626700  0.12465500  0.64070800  1
  O  O30  1  0.68969300  0.87242400  0.86284900  1
  O  O31  1  0.69373300  0.87534500  0.35929200  1
  O  O32  1  0.28670500  0.47533600  0.76090300  1
  O  O33  1  0.28429800  0.47703300  0.24479300  1
  O  O34  1  0.71570200  0.52296700  0.75520700  1
  O  O35  1  0.71329500  0.52466400  0.23909700  1
