# generated using pymatgen
data_FePO4
_symmetry_space_group_name_H-M   'P 1'
_cell_length_a   5.21989373
_cell_length_b   5.21989373
_cell_length_c   7.72514490
_cell_angle_alpha   90.00000000
_cell_angle_beta   90.00000000
_cell_angle_gamma   90.00000000
_symmetry_Int_Tables_number   1
_chemical_formula_structural   FePO4
_chemical_formula_sum   'Fe2 P2 O8'
_cell_volume   210.48926751
_cell_formula_units_Z   2
loop_
 _symmetry_equiv_pos_site_id
 _symmetry_equiv_pos_as_xyz
  1  'x, y, z'
loop_
 _atom_site_type_symbol
 _atom_site_label
 _atom_site_symmetry_multiplicity
 _atom_site_fract_x
 _atom_site_fract_y
 _atom_site_fract_z
 _atom_site_occupancy
  Fe  Fe0  1  0.00000000  0.50000000  0.25000000  1
  Fe  Fe1  1  0.50000000  0.00000000  0.75000000  1
  P  P2  1  0.50000000  0.50000000  0.50000000  1
  P  P3  1  0.00000000  0.00000000  0.00000000  1
  O  O4  1  0.28041488  0.39539713  0.38611187  1
  O  O5  1  0.71958512  0.60460287  0.38611187  1
  O  O6  1  0.60460287  0.28041488  0.61388813  1
  O  O7  1  0.39539713  0.71958512  0.61388813  1
  O  O8  1  0.78041488  0.89539713  0.88611187  1
  O  O9  1  0.21958513  0.10460287  0.88611187  1
  O  O10  1  0.10460287  0.78041488  0.11388813  1
  O  O11  1  0.89539713  0.21958513  0.11388813  1
