# generated using pymatgen
data_Li2Mn3F8
_symmetry_space_group_name_H-M   'P 1'
_cell_length_a   17.87989200
_cell_length_b   6.17530400
_cell_length_c   5.67482089
_cell_angle_alpha   90.00000000
_cell_angle_beta   93.21128491
_cell_angle_gamma   90.00000000
_symmetry_Int_Tables_number   1
_chemical_formula_structural   Li2Mn3F8
_chemical_formula_sum   'Li8 Mn12 F32'
_cell_volume   625.59447558
_cell_formula_units_Z   4
loop_
 _symmetry_equiv_pos_site_id
 _symmetry_equiv_pos_as_xyz
  1  'x, y, z'
loop_
 _atom_site_type_symbol
 _atom_site_label
 _atom_site_symmetry_multiplicity
 _atom_site_fract_x
 _atom_site_fract_y
 _atom_site_fract_z
 _atom_site_occupancy
  Li  Li0  1  0.89749600  0.13633700  0.21554900  1
  Li  Li1  1  0.89749600  0.86366300  0.71554900  1
  Li  Li2  1  0.60250400  0.63633700  0.28445100  1
  Li  Li3  1  0.60250400  0.36366300  0.78445100  1
  Li  Li4  1  0.39749600  0.63633700  0.21554900  1
  Li  Li5  1  0.39749600  0.36366300  0.71554900  1
  Li  Li6  1  0.10250400  0.13633700  0.28445100  1
  Li  Li7  1  0.10250400  0.86366300  0.78445100  1
  Mn  Mn8  1  0.79265850  0.66107850  0.26567200  1
  Mn  Mn9  1  0.79265850  0.33892150  0.76567200  1
  Mn  Mn10  1  0.70734150  0.16107850  0.23432800  1
  Mn  Mn11  1  0.70734150  0.83892150  0.73432800  1
  Mn  Mn12  1  0.00000000  0.63898800  0.25000000  1
  Mn  Mn13  1  0.00000000  0.36101200  0.75000000  1
  Mn  Mn14  1  0.29265850  0.16107850  0.26567200  1
  Mn  Mn15  1  0.29265850  0.83892150  0.76567200  1
  Mn  Mn16  1  0.20734150  0.66107850  0.23432800  1
  Mn  Mn17  1  0.20734150  0.33892150  0.73432800  1
  Mn  Mn18  1  0.50000000  0.13898800  0.25000000  1
  Mn  Mn19  1  0.50000000  0.86101200  0.75000000  1
  F  F20  1  0.93966050  0.37216550  0.41451400  1
  F  F21  1  0.93966050  0.62783450  0.91451400  1
  F  F22  1  0.91731600  0.85731200  0.37070800  1
  F  F23  1  0.91731600  0.14268800  0.87070800  1
  F  F24  1  0.79261050  0.92405150  0.04466500  1
  F  F25  1  0.79261050  0.07594850  0.54466500  1
  F  F26  1  0.81381350  0.34541950  0.13680200  1
  F  F27  1  0.81381350  0.65458050  0.63680200  1
  F  F28  1  0.68618650  0.84541950  0.36319800  1
  F  F29  1  0.68618650  0.15458050  0.86319800  1
  F  F30  1  0.70738950  0.42405150  0.45533500  1
  F  F31  1  0.70738950  0.57594850  0.95533500  1
  F  F32  1  0.58268400  0.35731200  0.12929200  1
  F  F33  1  0.58268400  0.64268800  0.62929200  1
  F  F34  1  0.56033950  0.87216550  0.08548600  1
  F  F35  1  0.56033950  0.12783450  0.58548600  1
  F  F36  1  0.43966050  0.87216550  0.41451400  1
  F  F37  1  0.43966050  0.12783450  0.91451400  1
  F  F38  1  0.41731600  0.35731200  0.37070800  1
  F  F39  1  0.41731600  0.64268800  0.87070800  1
  F  F40  1  0.29261050  0.42405150  0.04466500  1
  F  F41  1  0.29261050  0.57594850  0.54466500  1
  F  F42  1  0.31381350  0.84541950  0.13680200  1
  F  F43  1  0.31381350  0.15458050  0.63680200  1
  F  F44  1  0.18618650  0.34541950  0.36319800  1
  F  F45  1  0.18618650  0.65458050  0.86319800  1
  F  F46  1  0.20738950  0.92405150  0.45533500  1
  F  F47  1  0.20738950  0.07594850  0.95533500  1
  F  F48  1  0.08268400  0.85731200  0.12929200  1
  F  F49  1  0.08268400  0.14268800  0.62929200  1
  F  F50  1  0.06033950  0.37216550  0.08548600  1
  F  F51  1  0.06033950  0.62783450  0.58548600  1
