# generated using pymatgen
data_Li3Mn4(BO3)4
_symmetry_space_group_name_H-M   'P 1'
_cell_length_a   5.28847000
_cell_length_b   9.09230200
_cell_length_c   11.57125916
_cell_angle_alpha   90.00000000
_cell_angle_beta   116.35488376
_cell_angle_gamma   90.00000000
_symmetry_Int_Tables_number   1
_chemical_formula_structural   Li3Mn4(BO3)4
_chemical_formula_sum   'Li6 Mn8 B8 O24'
_cell_volume   498.56568573
_cell_formula_units_Z   2
loop_
 _symmetry_equiv_pos_site_id
 _symmetry_equiv_pos_as_xyz
  1  'x, y, z'
loop_
 _atom_site_type_symbol
 _atom_site_label
 _atom_site_symmetry_multiplicity
 _atom_site_fract_x
 _atom_site_fract_y
 _atom_site_fract_z
 _atom_site_occupancy
  Li  Li0  1  0.48621000  0.76897100  0.34195500  1
  Li  Li1  1  0.98476200  0.73614700  0.81936400  1
  Li  Li2  1  0.43325800  0.25927700  0.08978100  1
  Li  Li3  1  0.48621000  0.23102900  0.84195500  1
  Li  Li4  1  0.98476200  0.26385300  0.31936400  1
  Li  Li5  1  0.43325800  0.74072300  0.58978100  1
  Mn  Mn6  1  0.53991600  0.11167800  0.37887700  1
  Mn  Mn7  1  0.01764700  0.41970900  0.86458100  1
  Mn  Mn8  1  0.44086100  0.60133600  0.11503800  1
  Mn  Mn9  1  0.97680400  0.93732700  0.62120800  1
  Mn  Mn10  1  0.01764700  0.58029100  0.36458100  1
  Mn  Mn11  1  0.53991600  0.88832200  0.87887700  1
  Mn  Mn12  1  0.44086100  0.39866400  0.61503800  1
  Mn  Mn13  1  0.97680400  0.06267300  0.12120800  1
  B  B14  1  0.53568000  0.42831900  0.36909500  1
  B  B15  1  0.05234400  0.07516900  0.87829100  1
  B  B16  1  0.46541800  0.93854600  0.13406600  1
  B  B17  1  0.95103500  0.58588100  0.61985500  1
  B  B18  1  0.05234400  0.92483100  0.37829100  1
  B  B19  1  0.53568000  0.57168100  0.86909500  1
  B  B20  1  0.95103500  0.41411900  0.11985500  1
  B  B21  1  0.46541800  0.06145400  0.63406600  1
  O  O22  1  0.63582600  0.05633100  0.57129200  1
  O  O23  1  0.15780400  0.42527300  0.07592000  1
  O  O24  1  0.37036100  0.81191200  0.15982400  1
  O  O25  1  0.86028700  0.46403100  0.66289100  1
  O  O26  1  0.38840500  0.07505500  0.16841100  1
  O  O27  1  0.84047900  0.72282100  0.62624100  1
  O  O28  1  0.59152200  0.56787600  0.33758300  1
  O  O29  1  0.10086900  0.95139500  0.81610000  1
  O  O30  1  0.19060100  0.20417200  0.89270200  1
  O  O31  1  0.69082200  0.31039000  0.36359600  1
  O  O32  1  0.31607300  0.59426300  0.90472900  1
  O  O33  1  0.85567500  0.94484000  0.42827600  1
  O  O34  1  0.63582600  0.94366900  0.07129200  1
  O  O35  1  0.15780400  0.57472700  0.57592000  1
  O  O36  1  0.86028700  0.53596900  0.16289100  1
  O  O37  1  0.84047900  0.27717900  0.12624100  1
  O  O38  1  0.37036100  0.18808800  0.65982400  1
  O  O39  1  0.38840500  0.92494500  0.66841100  1
  O  O40  1  0.59152200  0.43212400  0.83758300  1
  O  O41  1  0.10086900  0.04860500  0.31610000  1
  O  O42  1  0.19060100  0.79582800  0.39270200  1
  O  O43  1  0.69082200  0.68961000  0.86359600  1
  O  O44  1  0.31607300  0.40573700  0.40472900  1
  O  O45  1  0.85567500  0.05516000  0.92827600  1
