# generated using pymatgen
data_Mn3Co(PO4)6
_symmetry_space_group_name_H-M   'P 1'
_cell_length_a   8.41213038
_cell_length_b   8.41213038
_cell_length_c   21.52093412
_cell_angle_alpha   90.00000000
_cell_angle_beta   90.00000000
_cell_angle_gamma   120.00000000
_symmetry_Int_Tables_number   1
_chemical_formula_structural   Mn3Co(PO4)6
_chemical_formula_sum   'Mn9 Co3 P18 O72'
_cell_volume   1318.87531610
_cell_formula_units_Z   3
loop_
 _symmetry_equiv_pos_site_id
 _symmetry_equiv_pos_as_xyz
  1  'x, y, z'
loop_
 _atom_site_type_symbol
 _atom_site_label
 _atom_site_symmetry_multiplicity
 _atom_site_fract_x
 _atom_site_fract_y
 _atom_site_fract_z
 _atom_site_occupancy
  Mn  Mn0  1  0.33333333  0.66666667  0.02261467  1
  Mn  Mn1  1  0.00000000  0.00000000  0.14382100  1
  Mn  Mn2  1  0.33333333  0.66666667  0.31076467  1
  Mn  Mn3  1  0.00000000  0.00000000  0.35594800  1
  Mn  Mn4  1  0.66666667  0.33333333  0.47715433  1
  Mn  Mn5  1  0.00000000  0.00000000  0.64409800  1
  Mn  Mn6  1  0.66666667  0.33333333  0.68928133  1
  Mn  Mn7  1  0.33333333  0.66666667  0.81048767  1
  Mn  Mn8  1  0.66666667  0.33333333  0.97743133  1
  Co  Co9  1  0.66666667  0.33333333  0.18857033  1
  Co  Co10  1  0.33333333  0.66666667  0.52190367  1
  Co  Co11  1  0.00000000  0.00000000  0.85523700  1
  P  P12  1  0.94974600  0.33339800  0.08364500  1
  P  P13  1  0.38365200  0.05025400  0.08364500  1
  P  P14  1  0.66660200  0.61634800  0.08364500  1
  P  P15  1  0.99817300  0.71404200  0.24955700  1
  P  P16  1  0.28595800  0.28413100  0.24955700  1
  P  P17  1  0.71586900  0.00182700  0.24955700  1
  P  P18  1  0.61641267  0.66673133  0.41697833  1
  P  P19  1  0.05031867  0.38358733  0.41697833  1
  P  P20  1  0.33326867  0.94968133  0.41697833  1
  P  P21  1  0.66483967  0.04737533  0.58289033  1
  P  P22  1  0.95262467  0.61746433  0.58289033  1
  P  P23  1  0.38253567  0.33516033  0.58289033  1
  P  P24  1  0.28307933  0.00006467  0.75031167  1
  P  P25  1  0.71698533  0.71692067  0.75031167  1
  P  P26  1  0.99993533  0.28301467  0.75031167  1
  P  P27  1  0.33150633  0.38070867  0.91622367  1
  P  P28  1  0.61929133  0.95079767  0.91622367  1
  P  P29  1  0.04920233  0.66849367  0.91622367  1
  O  O30  1  0.46355267  0.16563733  0.02452833  1
  O  O31  1  0.70208467  0.53644733  0.02452833  1
  O  O32  1  0.83436267  0.29791533  0.02452833  1
  O  O33  1  0.96802267  0.16098333  0.08876533  1
  O  O34  1  0.14183867  0.50406033  0.07814133  1
  O  O35  1  0.87149700  0.37069700  0.14317300  1
  O  O36  1  0.19296067  0.03197733  0.08876533  1
  O  O37  1  0.36222167  0.85816133  0.07814133  1
  O  O38  1  0.49593967  0.63777833  0.07814133  1
  O  O39  1  0.03409567  0.83074033  0.19089033  1
  O  O40  1  0.82568167  0.52146333  0.24494333  1
  O  O41  1  0.16925967  0.20335533  0.19089033  1
  O  O42  1  0.49920000  0.12850300  0.14317300  1
  O  O43  1  0.83901667  0.80703933  0.08876533  1
  O  O44  1  0.62930300  0.50080000  0.14317300  1
  O  O45  1  0.17007133  0.69473167  0.25478567  1
  O  O46  1  0.30526833  0.47533967  0.25478567  1
  O  O47  1  0.47853667  0.30421833  0.24494333  1
  O  O48  1  0.79664467  0.96590433  0.19089033  1
  O  O49  1  0.52466033  0.82992867  0.25478567  1
  O  O50  1  0.69578167  0.17431833  0.24494333  1
  O  O51  1  0.83135600  0.03524300  0.30853500  1
  O  O52  1  0.96475700  0.79611300  0.30853500  1
  O  O53  1  0.20388700  0.16864400  0.30853500  1
  O  O54  1  0.13021933  0.49897067  0.35786167  1
  O  O55  1  0.36875133  0.86978067  0.35786167  1
  O  O56  1  0.50102933  0.63124867  0.35786167  1
  O  O57  1  0.63468933  0.49431667  0.42209867  1
  O  O58  1  0.80850533  0.83739367  0.41147467  1
  O  O59  1  0.53816367  0.70403033  0.47650633  1
  O  O60  1  0.85962733  0.36531067  0.42209867  1
  O  O61  1  0.02888833  0.19149467  0.41147467  1
  O  O62  1  0.16260633  0.97111167  0.41147467  1
  O  O63  1  0.70076233  0.16407367  0.52422367  1
  O  O64  1  0.49234833  0.85479667  0.57827667  1
  O  O65  1  0.83592633  0.53668867  0.52422367  1
  O  O66  1  0.16586667  0.46183633  0.47650633  1
  O  O67  1  0.50568333  0.14037267  0.42209867  1
  O  O68  1  0.29596967  0.83413333  0.47650633  1
  O  O69  1  0.83673800  0.02806500  0.58811900  1
  O  O70  1  0.97193500  0.80867300  0.58811900  1
  O  O71  1  0.14520333  0.63755167  0.57827667  1
  O  O72  1  0.46331133  0.29923767  0.52422367  1
  O  O73  1  0.19132700  0.16326200  0.58811900  1
  O  O74  1  0.36244833  0.50765167  0.57827667  1
  O  O75  1  0.49802267  0.36857633  0.64186833  1
  O  O76  1  0.63142367  0.12944633  0.64186833  1
  O  O77  1  0.87055367  0.50197733  0.64186833  1
  O  O78  1  0.79688600  0.83230400  0.69119500  1
  O  O79  1  0.03541800  0.20311400  0.69119500  1
  O  O80  1  0.16769600  0.96458200  0.69119500  1
  O  O81  1  0.30135600  0.82765000  0.75543200  1
  O  O82  1  0.47517200  0.17072700  0.74480800  1
  O  O83  1  0.20483033  0.03736367  0.80983967  1
  O  O84  1  0.52629400  0.69864400  0.75543200  1
  O  O85  1  0.69555500  0.52482800  0.74480800  1
  O  O86  1  0.82927300  0.30444500  0.74480800  1
  O  O87  1  0.36742900  0.49740700  0.85755700  1
  O  O88  1  0.15901500  0.18813000  0.91161000  1
  O  O89  1  0.50259300  0.87002200  0.85755700  1
  O  O90  1  0.83253333  0.79516967  0.80983967  1
  O  O91  1  0.17235000  0.47370600  0.75543200  1
  O  O92  1  0.96263633  0.16746667  0.80983967  1
  O  O93  1  0.50340467  0.36139833  0.92145233  1
  O  O94  1  0.63860167  0.14200633  0.92145233  1
  O  O95  1  0.81187000  0.97088500  0.91161000  1
  O  O96  1  0.12997800  0.63257100  0.85755700  1
  O  O97  1  0.85799367  0.49659533  0.92145233  1
  O  O98  1  0.02911500  0.84098500  0.91161000  1
  O  O99  1  0.16468933  0.70190967  0.97520167  1
  O  O100  1  0.29809033  0.46277967  0.97520167  1
  O  O101  1  0.53722033  0.83531067  0.97520167  1
