# generated using pymatgen
data_Co6O7F5
_symmetry_space_group_name_H-M   'P 1'
_cell_length_a   6.10894200
_cell_length_b   6.96764000
_cell_length_c   8.74889500
_cell_angle_alpha   90.00000000
_cell_angle_beta   90.00000000
_cell_angle_gamma   90.00000000
_symmetry_Int_Tables_number   1
_chemical_formula_structural   Co6O7F5
_chemical_formula_sum   'Co12 O14 F10'
_cell_volume   372.39591635
_cell_formula_units_Z   2
loop_
 _symmetry_equiv_pos_site_id
 _symmetry_equiv_pos_as_xyz
  1  'x, y, z'
loop_
 _atom_site_type_symbol
 _atom_site_label
 _atom_site_symmetry_multiplicity
 _atom_site_fract_x
 _atom_site_fract_y
 _atom_site_fract_z
 _atom_site_occupancy
  Co  Co0  1  0.50000000  0.49139100  0.34239900  1
  Co  Co1  1  0.50000000  0.49139100  0.65760100  1
  Co  Co2  1  0.50000000  0.49980100  0.00000000  1
  Co  Co3  1  0.50000000  0.03665500  0.50000000  1
  Co  Co4  1  0.50000000  0.99342100  0.16884100  1
  Co  Co5  1  0.50000000  0.99342100  0.83115900  1
  Co  Co6  1  0.00000000  0.99139100  0.34239900  1
  Co  Co7  1  0.00000000  0.99139100  0.65760100  1
  Co  Co8  1  0.00000000  0.99980100  0.00000000  1
  Co  Co9  1  0.00000000  0.53665500  0.50000000  1
  Co  Co10  1  0.00000000  0.49342100  0.16884100  1
  Co  Co11  1  0.00000000  0.49342100  0.83115900  1
  O  O12  1  0.50000000  0.31987700  0.50000000  1
  O  O13  1  0.30583700  0.00274500  0.66188100  1
  O  O14  1  0.30583700  0.00274500  0.33811900  1
  O  O15  1  0.31159650  0.99733150  0.00000000  1
  O  O16  1  0.68840350  0.99733150  0.00000000  1
  O  O17  1  0.69416300  0.00274500  0.33811900  1
  O  O18  1  0.69416300  0.00274500  0.66188100  1
  O  O19  1  0.00000000  0.81987700  0.50000000  1
  O  O20  1  0.80583700  0.50274500  0.66188100  1
  O  O21  1  0.80583700  0.50274500  0.33811900  1
  O  O22  1  0.81159650  0.49733150  0.00000000  1
  O  O23  1  0.18840350  0.49733150  0.00000000  1
  O  O24  1  0.19416300  0.50274500  0.33811900  1
  O  O25  1  0.19416300  0.50274500  0.66188100  1
  F  F26  1  0.50000000  0.31163400  0.18131800  1
  F  F27  1  0.50000000  0.31163400  0.81868200  1
  F  F28  1  0.50000000  0.67609900  0.50000000  1
  F  F29  1  0.50000000  0.68451600  0.17968800  1
  F  F30  1  0.50000000  0.68451600  0.82031200  1
  F  F31  1  0.00000000  0.81163400  0.18131800  1
  F  F32  1  0.00000000  0.81163400  0.81868200  1
  F  F33  1  0.00000000  0.17609900  0.50000000  1
  F  F34  1  0.00000000  0.18451600  0.17968800  1
  F  F35  1  0.00000000  0.18451600  0.82031200  1
