# generated using pymatgen
data_Ba4LiBi3O11
_symmetry_space_group_name_H-M   'P 1'
_cell_length_a   8.67219400
_cell_length_b   8.76429200
_cell_length_c   8.70891700
_cell_angle_alpha   90.00000000
_cell_angle_beta   90.00000000
_cell_angle_gamma   90.00000000
_symmetry_Int_Tables_number   1
_chemical_formula_structural   Ba4LiBi3O11
_chemical_formula_sum   'Ba8 Li2 Bi6 O22'
_cell_volume   661.92681462
_cell_formula_units_Z   2
loop_
 _symmetry_equiv_pos_site_id
 _symmetry_equiv_pos_as_xyz
  1  'x, y, z'
loop_
 _atom_site_type_symbol
 _atom_site_label
 _atom_site_symmetry_multiplicity
 _atom_site_fract_x
 _atom_site_fract_y
 _atom_site_fract_z
 _atom_site_occupancy
  Ba  Ba0  1  0.73737250  0.76187050  0.24549500  1
  Ba  Ba1  1  0.73737250  0.76187050  0.75450500  1
  Ba  Ba2  1  0.73737250  0.23812950  0.75450500  1
  Ba  Ba3  1  0.73737250  0.23812950  0.24549500  1
  Ba  Ba4  1  0.23737250  0.26187050  0.24549500  1
  Ba  Ba5  1  0.23737250  0.26187050  0.75450500  1
  Ba  Ba6  1  0.23737250  0.73812950  0.75450500  1
  Ba  Ba7  1  0.23737250  0.73812950  0.24549500  1
  Li  Li8  1  0.53339800  0.00000000  0.00000000  1
  Li  Li9  1  0.03339800  0.50000000  0.00000000  1
  Bi  Bi10  1  0.98926100  0.00000000  0.00000000  1
  Bi  Bi11  1  0.00129900  0.00000000  0.50000000  1
  Bi  Bi12  1  0.49237000  0.00000000  0.50000000  1
  Bi  Bi13  1  0.48926100  0.50000000  0.00000000  1
  Bi  Bi14  1  0.50129900  0.50000000  0.50000000  1
  Bi  Bi15  1  0.99237000  0.50000000  0.50000000  1
  O  O16  1  0.02363500  0.00000000  0.24747100  1
  O  O17  1  0.02363500  0.00000000  0.75252900  1
  O  O18  1  0.49887700  0.24781800  0.50000000  1
  O  O19  1  0.24953400  0.00000000  0.50000000  1
  O  O20  1  0.50029750  0.25266850  0.00000000  1
  O  O21  1  0.49579900  0.00000000  0.25619000  1
  O  O22  1  0.49579900  0.00000000  0.74381000  1
  O  O23  1  0.50029750  0.74733150  0.00000000  1
  O  O24  1  0.49887700  0.75218200  0.50000000  1
  O  O25  1  0.75217200  0.00000000  0.00000000  1
  O  O26  1  0.74526200  0.00000000  0.50000000  1
  O  O27  1  0.52363500  0.50000000  0.24747100  1
  O  O28  1  0.52363500  0.50000000  0.75252900  1
  O  O29  1  0.99887700  0.74781800  0.50000000  1
  O  O30  1  0.74953400  0.50000000  0.50000000  1
  O  O31  1  0.00029750  0.75266850  0.00000000  1
  O  O32  1  0.99579900  0.50000000  0.25619000  1
  O  O33  1  0.99579900  0.50000000  0.74381000  1
  O  O34  1  0.00029750  0.24733150  0.00000000  1
  O  O35  1  0.99887700  0.25218200  0.50000000  1
  O  O36  1  0.25217200  0.50000000  0.00000000  1
  O  O37  1  0.24526200  0.50000000  0.50000000  1
