# generated using pymatgen
data_CoH12SO10
_symmetry_space_group_name_H-M   'P 1'
_cell_length_a   10.04632800
_cell_length_b   7.27980200
_cell_length_c   24.22142023
_cell_angle_alpha   90.00000000
_cell_angle_beta   99.03836274
_cell_angle_gamma   90.00000000
_symmetry_Int_Tables_number   1
_chemical_formula_structural   CoH12SO10
_chemical_formula_sum   'Co8 H96 S8 O80'
_cell_volume   1749.44501262
_cell_formula_units_Z   8
loop_
 _symmetry_equiv_pos_site_id
 _symmetry_equiv_pos_as_xyz
  1  'x, y, z'
loop_
 _atom_site_type_symbol
 _atom_site_label
 _atom_site_symmetry_multiplicity
 _atom_site_fract_x
 _atom_site_fract_y
 _atom_site_fract_z
 _atom_site_occupancy
  Co  Co0  1  0.00000000  0.00000000  0.00000000  1
  Co  Co1  1  0.00000000  0.00000000  0.50000000  1
  Co  Co2  1  0.00000000  0.05593700  0.75000000  1
  Co  Co3  1  0.00000000  0.94406300  0.25000000  1
  Co  Co4  1  0.50000000  0.50000000  0.00000000  1
  Co  Co5  1  0.50000000  0.50000000  0.50000000  1
  Co  Co6  1  0.50000000  0.55593700  0.75000000  1
  Co  Co7  1  0.50000000  0.44406300  0.25000000  1
  H  H8  1  0.84103150  0.80460950  0.92266100  1
  H  H9  1  0.15896850  0.80460950  0.57733900  1
  H  H10  1  0.15896850  0.19539050  0.07733900  1
  H  H11  1  0.84103150  0.19539050  0.42266100  1
  H  H12  1  0.96512600  0.67296700  0.94573100  1
  H  H13  1  0.03487400  0.67296700  0.55426900  1
  H  H14  1  0.03487400  0.32703300  0.05426900  1
  H  H15  1  0.96512600  0.32703300  0.44573100  1
  H  H16  1  0.98481500  0.71705500  0.06796700  1
  H  H17  1  0.01518500  0.71705500  0.43203300  1
  H  H18  1  0.01518500  0.28294500  0.93203300  1
  H  H19  1  0.98481500  0.28294500  0.56796700  1
  H  H20  1  0.12183050  0.81623650  0.09270400  1
  H  H21  1  0.87816950  0.81623650  0.40729600  1
  H  H22  1  0.87816950  0.18376350  0.90729600  1
  H  H23  1  0.12183050  0.18376350  0.59270400  1
  H  H24  1  0.29517500  0.64135800  0.05012200  1
  H  H25  1  0.70482500  0.64135800  0.44987800  1
  H  H26  1  0.70482500  0.35864200  0.94987800  1
  H  H27  1  0.29517500  0.35864200  0.55012200  1
  H  H28  1  0.22421750  0.52708550  0.99633400  1
  H  H29  1  0.77578250  0.52708550  0.50366600  1
  H  H30  1  0.77578250  0.47291450  0.00366600  1
  H  H31  1  0.22421750  0.47291450  0.49633400  1
  H  H32  1  0.66913350  0.39643750  0.68921600  1
  H  H33  1  0.33086650  0.39643750  0.81078400  1
  H  H34  1  0.33086650  0.60356250  0.31078400  1
  H  H35  1  0.66913350  0.60356250  0.18921600  1
  H  H36  1  0.06842100  0.74115400  0.70074700  1
  H  H37  1  0.93157900  0.74115400  0.79925300  1
  H  H38  1  0.93157900  0.25884600  0.29925300  1
  H  H39  1  0.06842100  0.25884600  0.20074700  1
  H  H40  1  0.07529100  0.36455300  0.69956700  1
  H  H41  1  0.92470900  0.36455300  0.80043300  1
  H  H42  1  0.92470900  0.63544700  0.30043300  1
  H  H43  1  0.07529100  0.63544700  0.19956700  1
  H  H44  1  0.20972150  0.28049250  0.73476000  1
  H  H45  1  0.79027850  0.28049250  0.76524000  1
  H  H46  1  0.79027850  0.71950750  0.26524000  1
  H  H47  1  0.20972150  0.71950750  0.23476000  1
  H  H48  1  0.83606900  0.16446300  0.65638100  1
  H  H49  1  0.16393100  0.16446300  0.84361900  1
  H  H50  1  0.16393100  0.83553700  0.34361900  1
  H  H51  1  0.83606900  0.83553700  0.15638100  1
  H  H52  1  0.33898600  0.44319800  0.65473500  1
  H  H53  1  0.66101400  0.44319800  0.84526500  1
  H  H54  1  0.66101400  0.55680200  0.34526500  1
  H  H55  1  0.33898600  0.55680200  0.15473500  1
  H  H56  1  0.34103150  0.30460950  0.92266100  1
  H  H57  1  0.65896850  0.30460950  0.57733900  1
  H  H58  1  0.65896850  0.69539050  0.07733900  1
  H  H59  1  0.34103150  0.69539050  0.42266100  1
  H  H60  1  0.46512600  0.17296700  0.94573100  1
  H  H61  1  0.53487400  0.17296700  0.55426900  1
  H  H62  1  0.53487400  0.82703300  0.05426900  1
  H  H63  1  0.46512600  0.82703300  0.44573100  1
  H  H64  1  0.48481500  0.21705500  0.06796700  1
  H  H65  1  0.51518500  0.21705500  0.43203300  1
  H  H66  1  0.51518500  0.78294500  0.93203300  1
  H  H67  1  0.48481500  0.78294500  0.56796700  1
  H  H68  1  0.62183050  0.31623650  0.09270400  1
  H  H69  1  0.37816950  0.31623650  0.40729600  1
  H  H70  1  0.37816950  0.68376350  0.90729600  1
  H  H71  1  0.62183050  0.68376350  0.59270400  1
  H  H72  1  0.79517500  0.14135800  0.05012200  1
  H  H73  1  0.20482500  0.14135800  0.44987800  1
  H  H74  1  0.20482500  0.85864200  0.94987800  1
  H  H75  1  0.79517500  0.85864200  0.55012200  1
  H  H76  1  0.72421750  0.02708550  0.99633400  1
  H  H77  1  0.27578250  0.02708550  0.50366600  1
  H  H78  1  0.27578250  0.97291450  0.00366600  1
  H  H79  1  0.72421750  0.97291450  0.49633400  1
  H  H80  1  0.16913350  0.89643750  0.68921600  1
  H  H81  1  0.83086650  0.89643750  0.81078400  1
  H  H82  1  0.83086650  0.10356250  0.31078400  1
  H  H83  1  0.16913350  0.10356250  0.18921600  1
  H  H84  1  0.56842100  0.24115400  0.70074700  1
  H  H85  1  0.43157900  0.24115400  0.79925300  1
  H  H86  1  0.43157900  0.75884600  0.29925300  1
  H  H87  1  0.56842100  0.75884600  0.20074700  1
  H  H88  1  0.57529100  0.86455300  0.69956700  1
  H  H89  1  0.42470900  0.86455300  0.80043300  1
  H  H90  1  0.42470900  0.13544700  0.30043300  1
  H  H91  1  0.57529100  0.13544700  0.19956700  1
  H  H92  1  0.70972150  0.78049250  0.73476000  1
  H  H93  1  0.29027850  0.78049250  0.76524000  1
  H  H94  1  0.29027850  0.21950750  0.26524000  1
  H  H95  1  0.70972150  0.21950750  0.23476000  1
  H  H96  1  0.33606900  0.66446300  0.65638100  1
  H  H97  1  0.66393100  0.66446300  0.84361900  1
  H  H98  1  0.66393100  0.33553700  0.34361900  1
  H  H99  1  0.33606900  0.33553700  0.15638100  1
  H  H100  1  0.83898600  0.94319800  0.65473500  1
  H  H101  1  0.16101400  0.94319800  0.84526500  1
  H  H102  1  0.16101400  0.05680200  0.34526500  1
  H  H103  1  0.83898600  0.05680200  0.15473500  1
  S  S104  1  0.12922600  0.54892000  0.87719700  1
  S  S105  1  0.87077400  0.54892000  0.62280300  1
  S  S106  1  0.87077400  0.45108000  0.12280300  1
  S  S107  1  0.12922600  0.45108000  0.37719700  1
  S  S108  1  0.62922600  0.04892000  0.87719700  1
  S  S109  1  0.37077400  0.04892000  0.62280300  1
  S  S110  1  0.37077400  0.95108000  0.12280300  1
  S  S111  1  0.62922600  0.95108000  0.37719700  1
  O  O112  1  0.22434500  0.40125200  0.86507800  1
  O  O113  1  0.77565500  0.40125200  0.63492200  1
  O  O114  1  0.77565500  0.59874800  0.13492200  1
  O  O115  1  0.22434500  0.59874800  0.36507800  1
  O  O116  1  0.01178150  0.55672850  0.83188600  1
  O  O117  1  0.98821850  0.55672850  0.66811400  1
  O  O118  1  0.98821850  0.44327150  0.16811400  1
  O  O119  1  0.01178150  0.44327150  0.33188600  1
  O  O120  1  0.08353200  0.50547000  0.93207100  1
  O  O121  1  0.91646800  0.50547000  0.56792900  1
  O  O122  1  0.91646800  0.49453000  0.06792900  1
  O  O123  1  0.08353200  0.49453000  0.43207100  1
  O  O124  1  0.20081750  0.73023950  0.88284000  1
  O  O125  1  0.79918250  0.73023950  0.61716000  1
  O  O126  1  0.79918250  0.26976050  0.11716000  1
  O  O127  1  0.20081750  0.26976050  0.38284000  1
  O  O128  1  0.90604700  0.77164000  0.95616500  1
  O  O129  1  0.09395300  0.77164000  0.54383500  1
  O  O130  1  0.09395300  0.22836000  0.04383500  1
  O  O131  1  0.90604700  0.22836000  0.45616500  1
  O  O132  1  0.03065250  0.83817450  0.07191700  1
  O  O133  1  0.96934750  0.83817450  0.42808300  1
  O  O134  1  0.96934750  0.16182550  0.92808300  1
  O  O135  1  0.03065250  0.16182550  0.57191700  1
  O  O136  1  0.31003100  0.55795500  0.01971800  1
  O  O137  1  0.68996900  0.55795500  0.48028200  1
  O  O138  1  0.68996900  0.44204500  0.98028200  1
  O  O139  1  0.31003100  0.44204500  0.51971800  1
  O  O140  1  0.11974850  0.84865750  0.71857500  1
  O  O141  1  0.88025150  0.84865750  0.78142500  1
  O  O142  1  0.88025150  0.15134250  0.28142500  1
  O  O143  1  0.11974850  0.15134250  0.21857500  1
  O  O144  1  0.11711550  0.25144650  0.71695100  1
  O  O145  1  0.88288450  0.25144650  0.78304900  1
  O  O146  1  0.88288450  0.74855350  0.28304900  1
  O  O147  1  0.11711550  0.74855350  0.21695100  1
  O  O148  1  0.35183100  0.55225400  0.67918400  1
  O  O149  1  0.64816900  0.55225400  0.82081600  1
  O  O150  1  0.64816900  0.44774600  0.32081600  1
  O  O151  1  0.35183100  0.44774600  0.17918400  1
  O  O152  1  0.72434500  0.90125200  0.86507800  1
  O  O153  1  0.27565500  0.90125200  0.63492200  1
  O  O154  1  0.27565500  0.09874800  0.13492200  1
  O  O155  1  0.72434500  0.09874800  0.36507800  1
  O  O156  1  0.51178150  0.05672850  0.83188600  1
  O  O157  1  0.48821850  0.05672850  0.66811400  1
  O  O158  1  0.48821850  0.94327150  0.16811400  1
  O  O159  1  0.51178150  0.94327150  0.33188600  1
  O  O160  1  0.58353200  0.00547000  0.93207100  1
  O  O161  1  0.41646800  0.00547000  0.56792900  1
  O  O162  1  0.41646800  0.99453000  0.06792900  1
  O  O163  1  0.58353200  0.99453000  0.43207100  1
  O  O164  1  0.70081750  0.23023950  0.88284000  1
  O  O165  1  0.29918250  0.23023950  0.61716000  1
  O  O166  1  0.29918250  0.76976050  0.11716000  1
  O  O167  1  0.70081750  0.76976050  0.38284000  1
  O  O168  1  0.40604700  0.27164000  0.95616500  1
  O  O169  1  0.59395300  0.27164000  0.54383500  1
  O  O170  1  0.59395300  0.72836000  0.04383500  1
  O  O171  1  0.40604700  0.72836000  0.45616500  1
  O  O172  1  0.53065250  0.33817450  0.07191700  1
  O  O173  1  0.46934750  0.33817450  0.42808300  1
  O  O174  1  0.46934750  0.66182550  0.92808300  1
  O  O175  1  0.53065250  0.66182550  0.57191700  1
  O  O176  1  0.81003100  0.05795500  0.01971800  1
  O  O177  1  0.18996900  0.05795500  0.48028200  1
  O  O178  1  0.18996900  0.94204500  0.98028200  1
  O  O179  1  0.81003100  0.94204500  0.51971800  1
  O  O180  1  0.61974850  0.34865750  0.71857500  1
  O  O181  1  0.38025150  0.34865750  0.78142500  1
  O  O182  1  0.38025150  0.65134250  0.28142500  1
  O  O183  1  0.61974850  0.65134250  0.21857500  1
  O  O184  1  0.61711550  0.75144650  0.71695100  1
  O  O185  1  0.38288450  0.75144650  0.78304900  1
  O  O186  1  0.38288450  0.24855350  0.28304900  1
  O  O187  1  0.61711550  0.24855350  0.21695100  1
  O  O188  1  0.85183100  0.05225400  0.67918400  1
  O  O189  1  0.14816900  0.05225400  0.82081600  1
  O  O190  1  0.14816900  0.94774600  0.32081600  1
  O  O191  1  0.85183100  0.94774600  0.17918400  1
