# generated using pymatgen
data_Li4Ti3Nb3V2O16
_symmetry_space_group_name_H-M   'P 1'
_cell_length_a   10.55054800
_cell_length_b   6.01323800
_cell_length_c   10.02019690
_cell_angle_alpha   90.00000000
_cell_angle_beta   90.33755438
_cell_angle_gamma   90.00000000
_symmetry_Int_Tables_number   1
_chemical_formula_structural   Li4Ti3Nb3V2O16
_chemical_formula_sum   'Li8 Ti6 Nb6 V4 O32'
_cell_volume   635.69987986
_cell_formula_units_Z   2
loop_
 _symmetry_equiv_pos_site_id
 _symmetry_equiv_pos_as_xyz
  1  'x, y, z'
loop_
 _atom_site_type_symbol
 _atom_site_label
 _atom_site_symmetry_multiplicity
 _atom_site_fract_x
 _atom_site_fract_y
 _atom_site_fract_z
 _atom_site_occupancy
  Li  Li0  1  0.66808100  0.00000000  0.10111000  1
  Li  Li1  1  0.50713600  0.50000000  0.00367800  1
  Li  Li2  1  0.50416200  0.50000000  0.50234200  1
  Li  Li3  1  0.83164000  0.50000000  0.61132200  1
  Li  Li4  1  0.16808100  0.50000000  0.10111000  1
  Li  Li5  1  0.00713600  0.00000000  0.00367800  1
  Li  Li6  1  0.00416200  0.00000000  0.50234200  1
  Li  Li7  1  0.33164000  0.00000000  0.61132200  1
  Ti  Ti8  1  0.58404100  0.75200300  0.78383500  1
  Ti  Ti9  1  0.58404100  0.24799700  0.78383500  1
  Ti  Ti10  1  0.66283200  0.50000000  0.28175900  1
  Ti  Ti11  1  0.08404100  0.25200300  0.78383500  1
  Ti  Ti12  1  0.08404100  0.74799700  0.78383500  1
  Ti  Ti13  1  0.16283200  0.00000000  0.28175900  1
  Nb  Nb14  1  0.83130700  0.00000000  0.78618300  1
  Nb  Nb15  1  0.91617450  0.27201750  0.28852600  1
  Nb  Nb16  1  0.91617450  0.72798250  0.28852600  1
  Nb  Nb17  1  0.33130700  0.50000000  0.78618300  1
  Nb  Nb18  1  0.41617450  0.77201750  0.28852600  1
  Nb  Nb19  1  0.41617450  0.22798250  0.28852600  1
  V  V20  1  0.66915800  0.00000000  0.51606200  1
  V  V21  1  0.83239500  0.50000000  0.00955000  1
  V  V22  1  0.16915800  0.50000000  0.51606200  1
  V  V23  1  0.33239500  0.00000000  0.00955000  1
  O  O24  1  0.58047800  0.73872100  0.39372900  1
  O  O25  1  0.51864600  0.00000000  0.67183300  1
  O  O26  1  0.66457400  0.00000000  0.89396700  1
  O  O27  1  0.50211900  0.50000000  0.68337500  1
  O  O28  1  0.50416800  0.50000000  0.18526300  1
  O  O29  1  0.58047800  0.26127900  0.39372900  1
  O  O30  1  0.73908800  0.77284600  0.66858000  1
  O  O31  1  0.73908800  0.22715400  0.66858000  1
  O  O32  1  0.65625000  0.50000000  0.89056600  1
  O  O33  1  0.84321200  0.00000000  0.40001800  1
  O  O34  1  0.75876200  0.27964400  0.16961500  1
  O  O35  1  0.75876200  0.72035600  0.16961500  1
  O  O36  1  0.81489800  0.50000000  0.40496300  1
  O  O37  1  0.92239150  0.23727950  0.89540900  1
  O  O38  1  0.98843200  0.50000000  0.15102500  1
  O  O39  1  0.92239150  0.76272050  0.89540900  1
  O  O40  1  0.08047800  0.23872100  0.39372900  1
  O  O41  1  0.01864600  0.50000000  0.67183300  1
  O  O42  1  0.16457400  0.50000000  0.89396700  1
  O  O43  1  0.00211900  0.00000000  0.68337500  1
  O  O44  1  0.00416800  0.00000000  0.18526300  1
  O  O45  1  0.08047800  0.76127900  0.39372900  1
  O  O46  1  0.23908800  0.27284600  0.66858000  1
  O  O47  1  0.23908800  0.72715400  0.66858000  1
  O  O48  1  0.15625000  0.00000000  0.89056600  1
  O  O49  1  0.34321200  0.50000000  0.40001800  1
  O  O50  1  0.25876200  0.77964400  0.16961500  1
  O  O51  1  0.25876200  0.22035600  0.16961500  1
  O  O52  1  0.31489800  0.00000000  0.40496300  1
  O  O53  1  0.42239150  0.73727950  0.89540900  1
  O  O54  1  0.48843200  0.00000000  0.15102500  1
  O  O55  1  0.42239150  0.26272050  0.89540900  1
