# generated using pymatgen
data_KLi2MnPCO7
_symmetry_space_group_name_H-M   'P 1'
_cell_length_a   5.55704900
_cell_length_b   6.86710900
_cell_length_c   8.83551303
_cell_angle_alpha   90.00000000
_cell_angle_beta   92.35208732
_cell_angle_gamma   90.00000000
_symmetry_Int_Tables_number   1
_chemical_formula_structural   KLi2MnPCO7
_chemical_formula_sum   'K2 Li4 Mn2 P2 C2 O14'
_cell_volume   336.88671963
_cell_formula_units_Z   2
loop_
 _symmetry_equiv_pos_site_id
 _symmetry_equiv_pos_as_xyz
  1  'x, y, z'
loop_
 _atom_site_type_symbol
 _atom_site_label
 _atom_site_symmetry_multiplicity
 _atom_site_fract_x
 _atom_site_fract_y
 _atom_site_fract_z
 _atom_site_occupancy
  K  K0  1  0.22100900  0.46590500  0.72803100  1
  K  K1  1  0.77899100  0.96590500  0.27196900  1
  Li  Li2  1  0.20555500  0.91949000  0.69969400  1
  Li  Li3  1  0.65864000  0.06992300  0.64788500  1
  Li  Li4  1  0.34136000  0.56992300  0.35211500  1
  Li  Li5  1  0.79444500  0.41949000  0.30030600  1
  Mn  Mn6  1  0.77816300  0.77003200  0.87670500  1
  Mn  Mn7  1  0.22183700  0.27003200  0.12329500  1
  P  P8  1  0.71644900  0.27905600  0.93008700  1
  P  P9  1  0.28355100  0.77905600  0.06991300  1
  C  C10  1  0.71626200  0.72997300  0.55636600  1
  C  C11  1  0.28373800  0.22997300  0.44363400  1
  O  O12  1  0.34628500  0.13704800  0.56587300  1
  O  O13  1  0.93661500  0.78659000  0.58337800  1
  O  O14  1  0.55331600  0.77830300  0.65429600  1
  O  O15  1  0.80370600  0.09576100  0.84173200  1
  O  O16  1  0.78218700  0.46085400  0.83658000  1
  O  O17  1  0.16155500  0.78495300  0.90686900  1
  O  O18  1  0.43968300  0.26617100  0.94289900  1
  O  O19  1  0.56031700  0.76617100  0.05710100  1
  O  O20  1  0.83844500  0.28495300  0.09313100  1
  O  O21  1  0.21781300  0.96085400  0.16342000  1
  O  O22  1  0.19629400  0.59576100  0.15826800  1
  O  O23  1  0.44668400  0.27830300  0.34570400  1
  O  O24  1  0.06338500  0.28659000  0.41662200  1
  O  O25  1  0.65371500  0.63704800  0.43412700  1
