# generated using pymatgen
data_Co2OF3
_symmetry_space_group_name_H-M   'P 1'
_cell_length_a   6.44572400
_cell_length_b   6.85818800
_cell_length_c   15.75133100
_cell_angle_alpha   90.00000000
_cell_angle_beta   90.00000000
_cell_angle_gamma   90.00000000
_symmetry_Int_Tables_number   1
_chemical_formula_structural   Co2OF3
_chemical_formula_sum   'Co20 O10 F30'
_cell_volume   696.30313323
_cell_formula_units_Z   10
loop_
 _symmetry_equiv_pos_site_id
 _symmetry_equiv_pos_as_xyz
  1  'x, y, z'
loop_
 _atom_site_type_symbol
 _atom_site_label
 _atom_site_symmetry_multiplicity
 _atom_site_fract_x
 _atom_site_fract_y
 _atom_site_fract_z
 _atom_site_occupancy
  Co  Co0  1  0.96338200  0.00000000  0.80079700  1
  Co  Co1  1  0.03598800  0.00000000  0.00000000  1
  Co  Co2  1  0.96338200  0.00000000  0.19920300  1
  Co  Co3  1  0.02808300  0.00000000  0.39914600  1
  Co  Co4  1  0.02808300  0.00000000  0.60085400  1
  Co  Co5  1  0.50080300  0.00000000  0.90021000  1
  Co  Co6  1  0.49475300  0.00000000  0.29941000  1
  Co  Co7  1  0.50080300  0.00000000  0.09979000  1
  Co  Co8  1  0.49475300  0.00000000  0.70059000  1
  Co  Co9  1  0.49038300  0.00000000  0.50000000  1
  Co  Co10  1  0.46338200  0.50000000  0.80079700  1
  Co  Co11  1  0.53598800  0.50000000  0.00000000  1
  Co  Co12  1  0.46338200  0.50000000  0.19920300  1
  Co  Co13  1  0.52808300  0.50000000  0.39914600  1
  Co  Co14  1  0.52808300  0.50000000  0.60085400  1
  Co  Co15  1  0.00080300  0.50000000  0.90021000  1
  Co  Co16  1  0.99475300  0.50000000  0.29941000  1
  Co  Co17  1  0.00080300  0.50000000  0.09979000  1
  Co  Co18  1  0.99475300  0.50000000  0.70059000  1
  Co  Co19  1  0.99038300  0.50000000  0.50000000  1
  O  O20  1  0.31130000  0.00000000  0.00000000  1
  O  O21  1  0.30384700  0.00000000  0.39891000  1
  O  O22  1  0.30384700  0.00000000  0.60109000  1
  O  O23  1  0.68792900  0.00000000  0.79960500  1
  O  O24  1  0.68792900  0.00000000  0.20039500  1
  O  O25  1  0.81130000  0.50000000  0.00000000  1
  O  O26  1  0.80384700  0.50000000  0.39891000  1
  O  O27  1  0.80384700  0.50000000  0.60109000  1
  O  O28  1  0.18792900  0.50000000  0.79960500  1
  O  O29  1  0.18792900  0.50000000  0.20039500  1
  F  F30  1  0.50029750  0.30598250  0.90020500  1
  F  F31  1  0.49515350  0.30613250  0.29960200  1
  F  F32  1  0.50029750  0.30598250  0.09979500  1
  F  F33  1  0.50771700  0.30517200  0.50000000  1
  F  F34  1  0.49515350  0.30613250  0.70039800  1
  F  F35  1  0.27756400  0.00000000  0.80066000  1
  F  F36  1  0.27756400  0.00000000  0.19934000  1
  F  F37  1  0.72164300  0.00000000  0.00000000  1
  F  F38  1  0.71536100  0.00000000  0.40114900  1
  F  F39  1  0.71536100  0.00000000  0.59885100  1
  F  F40  1  0.50029750  0.69401750  0.90020500  1
  F  F41  1  0.49515350  0.69386750  0.29960200  1
  F  F42  1  0.50029750  0.69401750  0.09979500  1
  F  F43  1  0.49515350  0.69386750  0.70039800  1
  F  F44  1  0.50771700  0.69482800  0.50000000  1
  F  F45  1  0.00029750  0.80598250  0.90020500  1
  F  F46  1  0.99515350  0.80613250  0.29960200  1
  F  F47  1  0.00029750  0.80598250  0.09979500  1
  F  F48  1  0.00771700  0.80517200  0.50000000  1
  F  F49  1  0.99515350  0.80613250  0.70039800  1
  F  F50  1  0.77756400  0.50000000  0.80066000  1
  F  F51  1  0.77756400  0.50000000  0.19934000  1
  F  F52  1  0.22164300  0.50000000  0.00000000  1
  F  F53  1  0.21536100  0.50000000  0.40114900  1
  F  F54  1  0.21536100  0.50000000  0.59885100  1
  F  F55  1  0.00029750  0.19401750  0.90020500  1
  F  F56  1  0.99515350  0.19386750  0.29960200  1
  F  F57  1  0.00029750  0.19401750  0.09979500  1
  F  F58  1  0.99515350  0.19386750  0.70039800  1
  F  F59  1  0.00771700  0.19482800  0.50000000  1
