# generated using pymatgen
data_Co2O3F
_symmetry_space_group_name_H-M   'P 1'
_cell_length_a   6.05037600
_cell_length_b   6.32409000
_cell_length_c   14.75506400
_cell_angle_alpha   90.00000000
_cell_angle_beta   90.00000000
_cell_angle_gamma   90.00000000
_symmetry_Int_Tables_number   1
_chemical_formula_structural   Co2O3F
_chemical_formula_sum   'Co20 O30 F10'
_cell_volume   564.57481923
_cell_formula_units_Z   10
loop_
 _symmetry_equiv_pos_site_id
 _symmetry_equiv_pos_as_xyz
  1  'x, y, z'
loop_
 _atom_site_type_symbol
 _atom_site_label
 _atom_site_symmetry_multiplicity
 _atom_site_fract_x
 _atom_site_fract_y
 _atom_site_fract_z
 _atom_site_occupancy
  Co  Co0  1  0.50000000  0.49852700  0.19977900  1
  Co  Co1  1  0.50000000  0.49882600  0.40001600  1
  Co  Co2  1  0.50000000  0.49882600  0.59998400  1
  Co  Co3  1  0.50000000  0.49852700  0.80022100  1
  Co  Co4  1  0.50000000  0.48794600  0.00000000  1
  Co  Co5  1  0.50000000  0.97320800  0.29984000  1
  Co  Co6  1  0.50000000  0.97320800  0.70016000  1
  Co  Co7  1  0.50000000  0.02433200  0.50000000  1
  Co  Co8  1  0.50000000  0.02243200  0.10011900  1
  Co  Co9  1  0.50000000  0.02243200  0.89988100  1
  Co  Co10  1  0.00000000  0.99852700  0.19977900  1
  Co  Co11  1  0.00000000  0.99882600  0.40001600  1
  Co  Co12  1  0.00000000  0.99882600  0.59998400  1
  Co  Co13  1  0.00000000  0.99852700  0.80022100  1
  Co  Co14  1  0.00000000  0.98794600  0.00000000  1
  Co  Co15  1  0.00000000  0.47320800  0.29984000  1
  Co  Co16  1  0.00000000  0.47320800  0.70016000  1
  Co  Co17  1  0.00000000  0.52433200  0.50000000  1
  Co  Co18  1  0.00000000  0.52243200  0.10011900  1
  Co  Co19  1  0.00000000  0.52243200  0.89988100  1
  O  O20  1  0.50000000  0.30784000  0.50000000  1
  O  O21  1  0.50000000  0.30441000  0.89914000  1
  O  O22  1  0.50000000  0.30441000  0.10086000  1
  O  O23  1  0.30661650  0.99617050  0.19983800  1
  O  O24  1  0.30586550  0.99949550  0.39996200  1
  O  O25  1  0.30661650  0.99617050  0.80016200  1
  O  O26  1  0.30440750  0.01012750  0.00000000  1
  O  O27  1  0.30586550  0.99949550  0.60003800  1
  O  O28  1  0.69338350  0.99617050  0.19983800  1
  O  O29  1  0.69413450  0.99949550  0.39996200  1
  O  O30  1  0.69413450  0.99949550  0.60003800  1
  O  O31  1  0.69338350  0.99617050  0.80016200  1
  O  O32  1  0.69559250  0.01012750  0.00000000  1
  O  O33  1  0.50000000  0.69059200  0.29992000  1
  O  O34  1  0.50000000  0.69059200  0.70008000  1
  O  O35  1  0.00000000  0.80784000  0.50000000  1
  O  O36  1  0.00000000  0.80441000  0.89914000  1
  O  O37  1  0.00000000  0.80441000  0.10086000  1
  O  O38  1  0.80661650  0.49617050  0.19983800  1
  O  O39  1  0.80586550  0.49949550  0.39996200  1
  O  O40  1  0.80661650  0.49617050  0.80016200  1
  O  O41  1  0.80440750  0.51012750  0.00000000  1
  O  O42  1  0.80586550  0.49949550  0.60003800  1
  O  O43  1  0.19338350  0.49617050  0.19983800  1
  O  O44  1  0.19413450  0.49949550  0.39996200  1
  O  O45  1  0.19413450  0.49949550  0.60003800  1
  O  O46  1  0.19338350  0.49617050  0.80016200  1
  O  O47  1  0.19559250  0.51012750  0.00000000  1
  O  O48  1  0.00000000  0.19059200  0.29992000  1
  O  O49  1  0.00000000  0.19059200  0.70008000  1
  F  F50  1  0.50000000  0.27973100  0.29950800  1
  F  F51  1  0.50000000  0.27973100  0.70049200  1
  F  F52  1  0.50000000  0.71854900  0.50000000  1
  F  F53  1  0.50000000  0.71148100  0.09720900  1
  F  F54  1  0.50000000  0.71148100  0.90279100  1
  F  F55  1  0.00000000  0.77973100  0.29950800  1
  F  F56  1  0.00000000  0.77973100  0.70049200  1
  F  F57  1  0.00000000  0.21854900  0.50000000  1
  F  F58  1  0.00000000  0.21148100  0.09720900  1
  F  F59  1  0.00000000  0.21148100  0.90279100  1
