# generated using pymatgen
data_Li4Fe5SnO12
_symmetry_space_group_name_H-M   'P 1'
_cell_length_a   5.28828200
_cell_length_b   9.06234800
_cell_length_c   10.36223934
_cell_angle_alpha   90.00000000
_cell_angle_beta   91.41174178
_cell_angle_gamma   90.00000000
_symmetry_Int_Tables_number   1
_chemical_formula_structural   Li4Fe5SnO12
_chemical_formula_sum   'Li8 Fe10 Sn2 O24'
_cell_volume   496.45182934
_cell_formula_units_Z   2
loop_
 _symmetry_equiv_pos_site_id
 _symmetry_equiv_pos_as_xyz
  1  'x, y, z'
loop_
 _atom_site_type_symbol
 _atom_site_label
 _atom_site_symmetry_multiplicity
 _atom_site_fract_x
 _atom_site_fract_y
 _atom_site_fract_z
 _atom_site_occupancy
  Li  Li0  1  0.37910400  0.23633200  0.74600300  1
  Li  Li1  1  0.62089600  0.23633200  0.25399700  1
  Li  Li2  1  0.37910400  0.76366800  0.74600300  1
  Li  Li3  1  0.62089600  0.76366800  0.25399700  1
  Li  Li4  1  0.87910400  0.73633200  0.74600300  1
  Li  Li5  1  0.12089600  0.73633200  0.25399700  1
  Li  Li6  1  0.87910400  0.26366800  0.74600300  1
  Li  Li7  1  0.12089600  0.26366800  0.25399700  1
  Fe  Fe8  1  0.50000000  0.33561700  0.50000000  1
  Fe  Fe9  1  0.50000000  0.83712800  0.00000000  1
  Fe  Fe10  1  0.50000000  0.16287200  0.00000000  1
  Fe  Fe11  1  0.50000000  0.66438300  0.50000000  1
  Fe  Fe12  1  0.50000000  0.00000000  0.50000000  1
  Fe  Fe13  1  0.00000000  0.83561700  0.50000000  1
  Fe  Fe14  1  0.00000000  0.33712800  0.00000000  1
  Fe  Fe15  1  0.00000000  0.66287200  0.00000000  1
  Fe  Fe16  1  0.00000000  0.16438300  0.50000000  1
  Fe  Fe17  1  0.00000000  0.50000000  0.50000000  1
  Sn  Sn18  1  0.00000000  0.00000000  0.00000000  1
  Sn  Sn19  1  0.50000000  0.50000000  0.00000000  1
  O  O20  1  0.34380900  0.32492000  0.10906000  1
  O  O21  1  0.65619100  0.32492000  0.89094000  1
  O  O22  1  0.34345400  0.17681800  0.39290800  1
  O  O23  1  0.34345400  0.82318200  0.39290800  1
  O  O24  1  0.65654600  0.17681800  0.60709200  1
  O  O25  1  0.17165000  0.00000000  0.59317500  1
  O  O26  1  0.65654600  0.82318200  0.60709200  1
  O  O27  1  0.34380900  0.67508000  0.10906000  1
  O  O28  1  0.34024900  0.00000000  0.10048100  1
  O  O29  1  0.65619100  0.67508000  0.89094000  1
  O  O30  1  0.65975100  0.00000000  0.89951900  1
  O  O31  1  0.82835000  0.00000000  0.40682500  1
  O  O32  1  0.84380900  0.82492000  0.10906000  1
  O  O33  1  0.15619100  0.82492000  0.89094000  1
  O  O34  1  0.84345400  0.67681800  0.39290800  1
  O  O35  1  0.84345400  0.32318200  0.39290800  1
  O  O36  1  0.15654600  0.67681800  0.60709200  1
  O  O37  1  0.67165000  0.50000000  0.59317500  1
  O  O38  1  0.15654600  0.32318200  0.60709200  1
  O  O39  1  0.84380900  0.17508000  0.10906000  1
  O  O40  1  0.84024900  0.50000000  0.10048100  1
  O  O41  1  0.15619100  0.17508000  0.89094000  1
  O  O42  1  0.15975100  0.50000000  0.89951900  1
  O  O43  1  0.32835000  0.50000000  0.40682500  1
