# generated using pymatgen
data_Li2BiO3
_symmetry_space_group_name_H-M   'P 1'
_cell_length_a   4.44114400
_cell_length_b   9.93834400
_cell_length_c   3.46387000
_cell_angle_alpha   90.00000000
_cell_angle_beta   90.00000000
_cell_angle_gamma   90.00000000
_symmetry_Int_Tables_number   1
_chemical_formula_structural   Li2BiO3
_chemical_formula_sum   'Li4 Bi2 O6'
_cell_volume   152.88696679
_cell_formula_units_Z   2
loop_
 _symmetry_equiv_pos_site_id
 _symmetry_equiv_pos_as_xyz
  1  'x, y, z'
loop_
 _atom_site_type_symbol
 _atom_site_label
 _atom_site_symmetry_multiplicity
 _atom_site_fract_x
 _atom_site_fract_y
 _atom_site_fract_z
 _atom_site_occupancy
  Li  Li0  1  0.00000000  0.34448100  0.50000000  1
  Li  Li1  1  0.50000000  0.15551900  0.50000000  1
  Li  Li2  1  0.50000000  0.84448100  0.50000000  1
  Li  Li3  1  0.00000000  0.65551900  0.50000000  1
  Bi  Bi4  1  0.00000000  0.00000000  0.00000000  1
  Bi  Bi5  1  0.50000000  0.50000000  0.00000000  1
  O  O6  1  0.50000000  0.35246100  0.50000000  1
  O  O7  1  0.00000000  0.14753900  0.50000000  1
  O  O8  1  0.50000000  0.00000000  0.00000000  1
  O  O9  1  0.00000000  0.85246100  0.50000000  1
  O  O10  1  0.50000000  0.64753900  0.50000000  1
  O  O11  1  0.00000000  0.50000000  0.00000000  1
