# generated using pymatgen
data_Na6Al4Fe(Si4O13)2
_symmetry_space_group_name_H-M   'P 1'
_cell_length_a   15.17603800
_cell_length_b   8.08321800
_cell_length_c   10.63388653
_cell_angle_alpha   90.00000000
_cell_angle_beta   113.70321848
_cell_angle_gamma   90.00000000
_symmetry_Int_Tables_number   1
_chemical_formula_structural   Na6Al4Fe(Si4O13)2
_chemical_formula_sum   'Na12 Al8 Fe2 Si16 O52'
_cell_volume   1194.42664132
_cell_formula_units_Z   2
loop_
 _symmetry_equiv_pos_site_id
 _symmetry_equiv_pos_as_xyz
  1  'x, y, z'
loop_
 _atom_site_type_symbol
 _atom_site_label
 _atom_site_symmetry_multiplicity
 _atom_site_fract_x
 _atom_site_fract_y
 _atom_site_fract_z
 _atom_site_occupancy
  Na  Na0  1  0.34228100  0.50239400  0.10991600  1
  Na  Na1  1  0.22984550  0.49289050  0.44261600  1
  Na  Na2  1  0.03351350  0.48853250  0.83379000  1
  Na  Na3  1  0.46648650  0.98853250  0.16621000  1
  Na  Na4  1  0.27015450  0.99289050  0.55738400  1
  Na  Na5  1  0.15771900  0.00239400  0.89008400  1
  Na  Na6  1  0.84228100  0.00239400  0.10991600  1
  Na  Na7  1  0.72984550  0.99289050  0.44261600  1
  Na  Na8  1  0.53351350  0.98853250  0.83379000  1
  Na  Na9  1  0.96648650  0.48853250  0.16621000  1
  Na  Na10  1  0.77015450  0.49289050  0.55738400  1
  Na  Na11  1  0.65771900  0.50239400  0.89008400  1
  Al  Al12  1  0.14450450  0.69602750  0.65203900  1
  Al  Al13  1  0.35549550  0.19602750  0.34796100  1
  Al  Al14  1  0.05930250  0.19180750  0.34396300  1
  Al  Al15  1  0.44069750  0.69180750  0.65603700  1
  Al  Al16  1  0.64450450  0.19602750  0.65203900  1
  Al  Al17  1  0.85549550  0.69602750  0.34796100  1
  Al  Al18  1  0.55930250  0.69180750  0.34396300  1
  Al  Al19  1  0.94069750  0.19180750  0.65603700  1
  Fe  Fe20  1  0.00000000  0.01144600  0.00000000  1
  Fe  Fe21  1  0.50000000  0.51144600  0.00000000  1
  Si  Si22  1  0.06003300  0.80158400  0.34280700  1
  Si  Si23  1  0.15036050  0.69880950  0.13211900  1
  Si  Si24  1  0.43996700  0.30158400  0.65719300  1
  Si  Si25  1  0.15147600  0.31410700  0.13123700  1
  Si  Si26  1  0.14703200  0.29998200  0.65131400  1
  Si  Si27  1  0.34963950  0.19880950  0.86788100  1
  Si  Si28  1  0.34852400  0.81410700  0.86876300  1
  Si  Si29  1  0.35296800  0.79998200  0.34868600  1
  Si  Si30  1  0.56003300  0.30158400  0.34280700  1
  Si  Si31  1  0.65036050  0.19880950  0.13211900  1
  Si  Si32  1  0.93996700  0.80158400  0.65719300  1
  Si  Si33  1  0.65147600  0.81410700  0.13123700  1
  Si  Si34  1  0.64703200  0.79998200  0.65131400  1
  Si  Si35  1  0.84963950  0.69880950  0.86788100  1
  Si  Si36  1  0.84852400  0.31410700  0.86876300  1
  Si  Si37  1  0.85296800  0.29998200  0.34868600  1
  O  O38  1  0.10116100  0.83334000  0.01611900  1
  O  O39  1  0.13850000  0.79979600  0.50206100  1
  O  O40  1  0.26902300  0.71266500  0.20965900  1
  O  O41  1  0.03711550  0.70021750  0.67684900  1
  O  O42  1  0.10949650  0.69214750  0.25532300  1
  O  O43  1  0.46320150  0.48810850  0.71760600  1
  O  O44  1  0.17684300  0.49020900  0.63584700  1
  O  O45  1  0.13140600  0.50886000  0.06558800  1
  O  O46  1  0.39883900  0.33334000  0.98388100  1
  O  O47  1  0.36150000  0.29979600  0.49793900  1
  O  O48  1  0.10952250  0.31429250  0.25226200  1
  O  O49  1  0.26888650  0.29804150  0.20482100  1
  O  O50  1  0.04872500  0.28999500  0.67702400  1
  O  O51  1  0.46288450  0.20021750  0.32315100  1
  O  O52  1  0.23097700  0.21266500  0.79034100  1
  O  O53  1  0.39050350  0.19214750  0.74467700  1
  O  O54  1  0.14253100  0.19538800  0.51719000  1
  O  O55  1  0.09851400  0.19123500  0.00497800  1
  O  O56  1  0.36859400  0.00886000  0.93441200  1
  O  O57  1  0.32315700  0.99020900  0.36415300  1
  O  O58  1  0.03679850  0.98810850  0.28239400  1
  O  O59  1  0.39047750  0.81429250  0.74773800  1
  O  O60  1  0.45127500  0.78999500  0.32297600  1
  O  O61  1  0.23111350  0.79804150  0.79517900  1
  O  O62  1  0.35746900  0.69538800  0.48281000  1
  O  O63  1  0.40148600  0.69123500  0.99502200  1
  O  O64  1  0.60116100  0.33334000  0.01611900  1
  O  O65  1  0.63850000  0.29979600  0.50206100  1
  O  O66  1  0.76902300  0.21266500  0.20965900  1
  O  O67  1  0.53711550  0.20021750  0.67684900  1
  O  O68  1  0.60949650  0.19214750  0.25532300  1
  O  O69  1  0.96320150  0.98810850  0.71760600  1
  O  O70  1  0.67684300  0.99020900  0.63584700  1
  O  O71  1  0.63140600  0.00886000  0.06558800  1
  O  O72  1  0.89883900  0.83334000  0.98388100  1
  O  O73  1  0.86150000  0.79979600  0.49793900  1
  O  O74  1  0.60952250  0.81429250  0.25226200  1
  O  O75  1  0.76888650  0.79804150  0.20482100  1
  O  O76  1  0.54872500  0.78999500  0.67702400  1
  O  O77  1  0.96288450  0.70021750  0.32315100  1
  O  O78  1  0.73097700  0.71266500  0.79034100  1
  O  O79  1  0.89050350  0.69214750  0.74467700  1
  O  O80  1  0.64253100  0.69538800  0.51719000  1
  O  O81  1  0.59851400  0.69123500  0.00497800  1
  O  O82  1  0.86859400  0.50886000  0.93441200  1
  O  O83  1  0.82315700  0.49020900  0.36415300  1
  O  O84  1  0.53679850  0.48810850  0.28239400  1
  O  O85  1  0.89047750  0.31429250  0.74773800  1
  O  O86  1  0.95127500  0.28999500  0.32297600  1
  O  O87  1  0.73111350  0.29804150  0.79517900  1
  O  O88  1  0.85746900  0.19538800  0.48281000  1
  O  O89  1  0.90148600  0.19123500  0.99502200  1
