# generated using pymatgen
data_Li3Cr(FeO3)2
_symmetry_space_group_name_H-M   'P 1'
_cell_length_a   13.03721200
_cell_length_b   2.98325400
_cell_length_c   5.98645709
_cell_angle_alpha   90.00000000
_cell_angle_beta   103.57554950
_cell_angle_gamma   90.00000000
_symmetry_Int_Tables_number   1
_chemical_formula_structural   Li3Cr(FeO3)2
_chemical_formula_sum   'Li6 Cr2 Fe4 O12'
_cell_volume   226.32809444
_cell_formula_units_Z   2
loop_
 _symmetry_equiv_pos_site_id
 _symmetry_equiv_pos_as_xyz
  1  'x, y, z'
loop_
 _atom_site_type_symbol
 _atom_site_label
 _atom_site_symmetry_multiplicity
 _atom_site_fract_x
 _atom_site_fract_y
 _atom_site_fract_z
 _atom_site_occupancy
  Li  Li0  1  0.00000000  0.00000000  0.00000000  1
  Li  Li1  1  0.16575900  0.50000000  0.33384600  1
  Li  Li2  1  0.33424100  0.00000000  0.66615400  1
  Li  Li3  1  0.50000000  0.50000000  0.00000000  1
  Li  Li4  1  0.66575900  0.00000000  0.33384600  1
  Li  Li5  1  0.83424100  0.50000000  0.66615400  1
  Cr  Cr6  1  0.00000000  0.00000000  0.50000000  1
  Cr  Cr7  1  0.50000000  0.50000000  0.50000000  1
  Fe  Fe8  1  0.16668700  0.50000000  0.83290400  1
  Fe  Fe9  1  0.33331300  0.00000000  0.16709600  1
  Fe  Fe10  1  0.66668700  0.00000000  0.83290400  1
  Fe  Fe11  1  0.83331300  0.50000000  0.16709600  1
  O  O12  1  0.16096000  0.00000000  0.59509000  1
  O  O13  1  0.32877800  0.50000000  0.92825900  1
  O  O14  1  0.33904000  0.50000000  0.40491000  1
  O  O15  1  0.49493300  0.00000000  0.26517000  1
  O  O16  1  0.00506700  0.50000000  0.73483000  1
  O  O17  1  0.17122200  0.00000000  0.07174100  1
  O  O18  1  0.66096000  0.50000000  0.59509000  1
  O  O19  1  0.82877800  0.00000000  0.92825900  1
  O  O20  1  0.83904000  0.00000000  0.40491000  1
  O  O21  1  0.99493300  0.50000000  0.26517000  1
  O  O22  1  0.50506700  0.00000000  0.73483000  1
  O  O23  1  0.67122200  0.50000000  0.07174100  1
