# generated using pymatgen
data_LiV(CO3)2
_symmetry_space_group_name_H-M   'P 1'
_cell_length_a   4.41029097
_cell_length_b   5.92855505
_cell_length_c   8.75260212
_cell_angle_alpha   90.00000000
_cell_angle_beta   118.83216760
_cell_angle_gamma   90.00000000
_symmetry_Int_Tables_number   1
_chemical_formula_structural   LiV(CO3)2
_chemical_formula_sum   'Li2 V2 C4 O12'
_cell_volume   200.48194870
_cell_formula_units_Z   2
loop_
 _symmetry_equiv_pos_site_id
 _symmetry_equiv_pos_as_xyz
  1  'x, y, z'
loop_
 _atom_site_type_symbol
 _atom_site_label
 _atom_site_symmetry_multiplicity
 _atom_site_fract_x
 _atom_site_fract_y
 _atom_site_fract_z
 _atom_site_occupancy
  Li  Li0  1  0.00000000  0.00000000  0.50000000  1
  Li  Li1  1  0.00000000  0.50000000  0.00000000  1
  V  V2  1  0.50000000  0.00000000  0.00000000  1
  V  V3  1  0.50000000  0.50000000  0.50000000  1
  C  C4  1  0.24159025  0.36335050  0.74557950  1
  C  C5  1  0.75840975  0.86335050  0.75442050  1
  C  C6  1  0.24159025  0.13664950  0.24557950  1
  C  C7  1  0.75840975  0.63664950  0.25442050  1
  O  O8  1  0.50371025  0.05292750  0.23852750  1
  O  O9  1  0.49628975  0.55292750  0.26147250  1
  O  O10  1  0.50371025  0.44707250  0.73852750  1
  O  O11  1  0.49628975  0.94707250  0.76147250  1
  O  O12  1  0.26610475  0.30293850  0.89389200  1
  O  O13  1  0.73389525  0.80293850  0.60610800  1
  O  O14  1  0.26610475  0.19706150  0.39389200  1
  O  O15  1  0.73389525  0.69706150  0.10610800  1
  O  O16  1  0.95076875  0.32982300  0.60276250  1
  O  O17  1  0.04923125  0.82982300  0.89723750  1
  O  O18  1  0.95076875  0.17017700  0.10276250  1
  O  O19  1  0.04923125  0.67017700  0.39723750  1
