# generated using pymatgen
data_Li2CoSiO4
_symmetry_space_group_name_H-M   'P 1'
_cell_length_a   5.39969309
_cell_length_b   5.01055701
_cell_length_c   6.33611297
_cell_angle_alpha   90.00000000
_cell_angle_beta   90.60115565
_cell_angle_gamma   90.00000000
_symmetry_Int_Tables_number   1
_chemical_formula_structural   Li2CoSiO4
_chemical_formula_sum   'Li4 Co2 Si2 O8'
_cell_volume   171.41707930
_cell_formula_units_Z   2
loop_
 _symmetry_equiv_pos_site_id
 _symmetry_equiv_pos_as_xyz
  1  'x, y, z'
loop_
 _atom_site_type_symbol
 _atom_site_label
 _atom_site_symmetry_multiplicity
 _atom_site_fract_x
 _atom_site_fract_y
 _atom_site_fract_z
 _atom_site_occupancy
  Li  Li0  1  0.15707225  0.99956700  0.26865050  1
  Li  Li1  1  0.84292775  0.49956700  0.73134950  1
  Li  Li2  1  0.33480925  0.49871600  0.50039700  1
  Li  Li3  1  0.66519075  0.99871600  0.49960300  1
  Co  Co4  1  0.31833525  0.49874400  0.00657450  1
  Co  Co5  1  0.68166475  0.99874400  0.99342550  1
  Si  Si6  1  0.17477525  0.99332500  0.74266850  1
  Si  Si7  1  0.82522475  0.49332500  0.25733150  1
  O  O8  1  0.31898525  0.09566700  0.96767550  1
  O  O9  1  0.68101475  0.59566700  0.03232450  1
  O  O10  1  0.31651875  0.10471950  0.53629300  1
  O  O11  1  0.68348125  0.60471950  0.46370700  1
  O  O12  1  0.17897125  0.66302000  0.75100200  1
  O  O13  1  0.82102875  0.16302000  0.24899800  1
  O  O14  1  0.88452375  0.10031350  0.75069400  1
  O  O15  1  0.11547625  0.60031350  0.24930600  1
