# generated using pymatgen
data_Li3Cr2CoO6
_symmetry_space_group_name_H-M   'P 1'
_cell_length_a   12.87422400
_cell_length_b   2.96328400
_cell_length_c   5.92981853
_cell_angle_alpha   90.00000000
_cell_angle_beta   103.27654782
_cell_angle_gamma   90.00000000
_symmetry_Int_Tables_number   1
_chemical_formula_structural   Li3Cr2CoO6
_chemical_formula_sum   'Li6 Cr4 Co2 O12'
_cell_volume   220.17621187
_cell_formula_units_Z   2
loop_
 _symmetry_equiv_pos_site_id
 _symmetry_equiv_pos_as_xyz
  1  'x, y, z'
loop_
 _atom_site_type_symbol
 _atom_site_label
 _atom_site_symmetry_multiplicity
 _atom_site_fract_x
 _atom_site_fract_y
 _atom_site_fract_z
 _atom_site_occupancy
  Li  Li0  1  0.83672900  0.00000000  0.17015400  1
  Li  Li1  1  0.00000000  0.50000000  0.50000000  1
  Li  Li2  1  0.66327100  0.50000000  0.82984600  1
  Li  Li3  1  0.33672900  0.50000000  0.17015400  1
  Li  Li4  1  0.50000000  0.00000000  0.50000000  1
  Li  Li5  1  0.16327100  0.00000000  0.82984600  1
  Cr  Cr6  1  0.83375700  0.00000000  0.66834900  1
  Cr  Cr7  1  0.66624300  0.50000000  0.33165100  1
  Cr  Cr8  1  0.33375700  0.50000000  0.66834900  1
  Cr  Cr9  1  0.16624300  0.00000000  0.33165100  1
  Co  Co10  1  0.00000000  0.50000000  0.00000000  1
  Co  Co11  1  0.50000000  0.00000000  0.00000000  1
  O  O12  1  0.83886900  0.50000000  0.90415000  1
  O  O13  1  0.50500800  0.50000000  0.23677000  1
  O  O14  1  0.67166100  0.00000000  0.56869900  1
  O  O15  1  0.99499200  0.00000000  0.76323000  1
  O  O16  1  0.66113100  0.00000000  0.09585000  1
  O  O17  1  0.82833900  0.50000000  0.43130100  1
  O  O18  1  0.33886900  0.00000000  0.90415000  1
  O  O19  1  0.00500800  0.00000000  0.23677000  1
  O  O20  1  0.17166100  0.50000000  0.56869900  1
  O  O21  1  0.49499200  0.50000000  0.76323000  1
  O  O22  1  0.16113100  0.50000000  0.09585000  1
  O  O23  1  0.32833900  0.00000000  0.43130100  1
