# generated using pymatgen
data_Li2Fe3S4
_symmetry_space_group_name_H-M   'P 1'
_cell_length_a   16.71399400
_cell_length_b   6.52923800
_cell_length_c   6.20711688
_cell_angle_alpha   90.00000000
_cell_angle_beta   108.58017460
_cell_angle_gamma   90.00000000
_symmetry_Int_Tables_number   1
_chemical_formula_structural   Li2Fe3S4
_chemical_formula_sum   'Li8 Fe12 S16'
_cell_volume   642.07452311
_cell_formula_units_Z   4
loop_
 _symmetry_equiv_pos_site_id
 _symmetry_equiv_pos_as_xyz
  1  'x, y, z'
loop_
 _atom_site_type_symbol
 _atom_site_label
 _atom_site_symmetry_multiplicity
 _atom_site_fract_x
 _atom_site_fract_y
 _atom_site_fract_z
 _atom_site_occupancy
  Li  Li0  1  0.08701700  0.10281400  0.94470700  1
  Li  Li1  1  0.08701700  0.89718600  0.44470700  1
  Li  Li2  1  0.41298300  0.60281400  0.55529300  1
  Li  Li3  1  0.41298300  0.39718600  0.05529300  1
  Li  Li4  1  0.58701700  0.60281400  0.94470700  1
  Li  Li5  1  0.58701700  0.39718600  0.44470700  1
  Li  Li6  1  0.91298300  0.10281400  0.55529300  1
  Li  Li7  1  0.91298300  0.89718600  0.05529300  1
  Fe  Fe8  1  0.18579400  0.37124900  0.55761600  1
  Fe  Fe9  1  0.18579400  0.62875100  0.05761600  1
  Fe  Fe10  1  0.31420600  0.87124900  0.94238400  1
  Fe  Fe11  1  0.31420600  0.12875100  0.44238400  1
  Fe  Fe12  1  0.00000000  0.51255600  0.75000000  1
  Fe  Fe13  1  0.00000000  0.48744400  0.25000000  1
  Fe  Fe14  1  0.68579400  0.87124900  0.55761600  1
  Fe  Fe15  1  0.68579400  0.12875100  0.05761600  1
  Fe  Fe16  1  0.81420600  0.37124900  0.94238400  1
  Fe  Fe17  1  0.81420600  0.62875100  0.44238400  1
  Fe  Fe18  1  0.50000000  0.01255600  0.75000000  1
  Fe  Fe19  1  0.50000000  0.98744400  0.25000000  1
  S  S20  1  0.05392050  0.25250450  0.55604100  1
  S  S21  1  0.05392050  0.74749550  0.05604100  1
  S  S22  1  0.19808050  0.69843450  0.70385900  1
  S  S23  1  0.30191950  0.19843450  0.79614100  1
  S  S24  1  0.19808050  0.30156550  0.20385900  1
  S  S25  1  0.30191950  0.80156550  0.29614100  1
  S  S26  1  0.44607950  0.75250450  0.94395900  1
  S  S27  1  0.44607950  0.24749550  0.44395900  1
  S  S28  1  0.55392050  0.75250450  0.55604100  1
  S  S29  1  0.55392050  0.24749550  0.05604100  1
  S  S30  1  0.69808050  0.19843450  0.70385900  1
  S  S31  1  0.80191950  0.69843450  0.79614100  1
  S  S32  1  0.69808050  0.80156550  0.20385900  1
  S  S33  1  0.80191950  0.30156550  0.29614100  1
  S  S34  1  0.94607950  0.25250450  0.94395900  1
  S  S35  1  0.94607950  0.74749550  0.44395900  1
