# generated using pymatgen
data_Li2VOF3
_symmetry_space_group_name_H-M   'P 1'
_cell_length_a   9.79314737
_cell_length_b   5.87397200
_cell_length_c   5.22537958
_cell_angle_alpha   90.00000000
_cell_angle_beta   90.31165708
_cell_angle_gamma   90.00000000
_symmetry_Int_Tables_number   1
_chemical_formula_structural   Li2VOF3
_chemical_formula_sum   'Li8 V4 O4 F12'
_cell_volume   300.58380734
_cell_formula_units_Z   4
loop_
 _symmetry_equiv_pos_site_id
 _symmetry_equiv_pos_as_xyz
  1  'x, y, z'
loop_
 _atom_site_type_symbol
 _atom_site_label
 _atom_site_symmetry_multiplicity
 _atom_site_fract_x
 _atom_site_fract_y
 _atom_site_fract_z
 _atom_site_occupancy
  Li  Li0  1  0.80654100  0.84722500  0.99537100  1
  Li  Li1  1  0.79507500  0.14233800  0.48217800  1
  Li  Li2  1  0.19345900  0.84722500  0.00462900  1
  Li  Li3  1  0.20492500  0.14233800  0.51782200  1
  Li  Li4  1  0.30654100  0.34722500  0.99537100  1
  Li  Li5  1  0.29507500  0.64233800  0.48217800  1
  Li  Li6  1  0.69345900  0.34722500  0.00462900  1
  Li  Li7  1  0.70492500  0.64233800  0.51782200  1
  V  V8  1  0.50000000  0.88620000  0.00000000  1
  V  V9  1  0.50000000  0.14715800  0.50000000  1
  V  V10  1  0.00000000  0.38620000  0.00000000  1
  V  V11  1  0.00000000  0.64715800  0.50000000  1
  O  O12  1  0.60897350  0.09637050  0.80727500  1
  O  O13  1  0.39102650  0.09637050  0.19272500  1
  O  O14  1  0.10897350  0.59637050  0.80727500  1
  O  O15  1  0.89102650  0.59637050  0.19272500  1
  F  F16  1  0.63052500  0.63520100  0.86601300  1
  F  F17  1  0.13708900  0.86539000  0.36307000  1
  F  F18  1  0.62699700  0.89677300  0.32346700  1
  F  F19  1  0.37300300  0.89677300  0.67653300  1
  F  F20  1  0.36947500  0.63520100  0.13398700  1
  F  F21  1  0.86291100  0.86539000  0.63693000  1
  F  F22  1  0.13052500  0.13520100  0.86601300  1
  F  F23  1  0.63708900  0.36539000  0.36307000  1
  F  F24  1  0.12699700  0.39677300  0.32346700  1
  F  F25  1  0.87300300  0.39677300  0.67653300  1
  F  F26  1  0.86947500  0.13520100  0.13398700  1
  F  F27  1  0.36291100  0.36539000  0.63693000  1
