# generated using pymatgen
data_Fe3O5F
_symmetry_space_group_name_H-M   'P 1'
_cell_length_a   6.42697000
_cell_length_b   20.10671200
_cell_length_c   3.01807300
_cell_angle_alpha   90.00000000
_cell_angle_beta   90.00000000
_cell_angle_gamma   90.00000000
_symmetry_Int_Tables_number   1
_chemical_formula_structural   Fe3O5F
_chemical_formula_sum   'Fe12 O20 F4'
_cell_volume   390.01119214
_cell_formula_units_Z   4
loop_
 _symmetry_equiv_pos_site_id
 _symmetry_equiv_pos_as_xyz
  1  'x, y, z'
loop_
 _atom_site_type_symbol
 _atom_site_label
 _atom_site_symmetry_multiplicity
 _atom_site_fract_x
 _atom_site_fract_y
 _atom_site_fract_z
 _atom_site_occupancy
  Fe  Fe0  1  0.00000000  0.32295800  0.00000000  1
  Fe  Fe1  1  0.50000000  0.33618900  0.50000000  1
  Fe  Fe2  1  0.50000000  0.17704200  0.00000000  1
  Fe  Fe3  1  0.50000000  0.00000000  0.50000000  1
  Fe  Fe4  1  0.00000000  0.16381100  0.50000000  1
  Fe  Fe5  1  0.00000000  0.00000000  0.00000000  1
  Fe  Fe6  1  0.50000000  0.82295800  0.00000000  1
  Fe  Fe7  1  0.00000000  0.83618900  0.50000000  1
  Fe  Fe8  1  0.00000000  0.67704200  0.00000000  1
  Fe  Fe9  1  0.00000000  0.50000000  0.50000000  1
  Fe  Fe10  1  0.50000000  0.66381100  0.50000000  1
  Fe  Fe11  1  0.50000000  0.50000000  0.00000000  1
  O  O12  1  0.30562750  0.33487850  0.00000000  1
  O  O13  1  0.19437250  0.16512150  0.00000000  1
  O  O14  1  0.69437250  0.33487850  0.00000000  1
  O  O15  1  0.50000000  0.23546600  0.50000000  1
  O  O16  1  0.00000000  0.26453400  0.50000000  1
  O  O17  1  0.80562750  0.16512150  0.00000000  1
  O  O18  1  0.68795200  0.00000000  0.00000000  1
  O  O19  1  0.00000000  0.06219300  0.50000000  1
  O  O20  1  0.50000000  0.43780700  0.50000000  1
  O  O21  1  0.31204800  0.00000000  0.00000000  1
  O  O22  1  0.80562750  0.83487850  0.00000000  1
  O  O23  1  0.69437250  0.66512150  0.00000000  1
  O  O24  1  0.19437250  0.83487850  0.00000000  1
  O  O25  1  0.00000000  0.73546600  0.50000000  1
  O  O26  1  0.50000000  0.76453400  0.50000000  1
  O  O27  1  0.30562750  0.66512150  0.00000000  1
  O  O28  1  0.18795200  0.50000000  0.00000000  1
  O  O29  1  0.50000000  0.56219300  0.50000000  1
  O  O30  1  0.00000000  0.93780700  0.50000000  1
  O  O31  1  0.81204800  0.50000000  0.00000000  1
  F  F32  1  0.50000000  0.10421200  0.50000000  1
  F  F33  1  0.00000000  0.39578800  0.50000000  1
  F  F34  1  0.00000000  0.60421200  0.50000000  1
  F  F35  1  0.50000000  0.89578800  0.50000000  1
