# generated using pymatgen
data_Li2TiCr2O6
_symmetry_space_group_name_H-M   'P 1'
_cell_length_a   5.13491892
_cell_length_b   8.89483081
_cell_length_c   10.21358800
_cell_angle_alpha   90.00000000
_cell_angle_beta   90.00000000
_cell_angle_gamma   90.00000000
_symmetry_Int_Tables_number   1
_chemical_formula_structural   Li2TiCr2O6
_chemical_formula_sum   'Li8 Ti4 Cr8 O24'
_cell_volume   466.49781898
_cell_formula_units_Z   4
loop_
 _symmetry_equiv_pos_site_id
 _symmetry_equiv_pos_as_xyz
  1  'x, y, z'
loop_
 _atom_site_type_symbol
 _atom_site_label
 _atom_site_symmetry_multiplicity
 _atom_site_fract_x
 _atom_site_fract_y
 _atom_site_fract_z
 _atom_site_occupancy
  Li  Li0  1  0.39789000  0.25000000  0.75000000  1
  Li  Li1  1  0.60211000  0.25000000  0.25000000  1
  Li  Li2  1  0.89789000  0.25000000  0.75000000  1
  Li  Li3  1  0.10211000  0.25000000  0.25000000  1
  Li  Li4  1  0.89789000  0.75000000  0.75000000  1
  Li  Li5  1  0.10211000  0.75000000  0.25000000  1
  Li  Li6  1  0.39789000  0.75000000  0.75000000  1
  Li  Li7  1  0.60211000  0.75000000  0.25000000  1
  Ti  Ti8  1  0.50000000  0.00000000  0.00000000  1
  Ti  Ti9  1  0.50000000  0.50000000  0.50000000  1
  Ti  Ti10  1  0.00000000  0.50000000  0.00000000  1
  Ti  Ti11  1  0.00000000  0.00000000  0.50000000  1
  Cr  Cr12  1  0.00000000  0.16389900  0.00000000  1
  Cr  Cr13  1  0.00000000  0.33610100  0.50000000  1
  Cr  Cr14  1  0.50000000  0.16389900  0.50000000  1
  Cr  Cr15  1  0.50000000  0.33610100  0.00000000  1
  Cr  Cr16  1  0.50000000  0.66389900  0.00000000  1
  Cr  Cr17  1  0.50000000  0.83610100  0.50000000  1
  Cr  Cr18  1  0.00000000  0.66389900  0.50000000  1
  Cr  Cr19  1  0.00000000  0.83610100  0.00000000  1
  O  O20  1  0.17796150  0.50000000  0.59891300  1
  O  O21  1  0.82203850  0.00000000  0.09891300  1
  O  O22  1  0.17796150  0.00000000  0.90108700  1
  O  O23  1  0.82203850  0.50000000  0.40108700  1
  O  O24  1  0.33832100  0.16825050  0.10647100  1
  O  O25  1  0.16167900  0.33174950  0.89352900  1
  O  O26  1  0.33832100  0.33174950  0.39352900  1
  O  O27  1  0.66167900  0.33174950  0.60647100  1
  O  O28  1  0.66167900  0.16825050  0.89352900  1
  O  O29  1  0.83832100  0.16825050  0.39352900  1
  O  O30  1  0.16167900  0.16825050  0.60647100  1
  O  O31  1  0.83832100  0.33174950  0.10647100  1
  O  O32  1  0.67796150  0.00000000  0.59891300  1
  O  O33  1  0.32203850  0.50000000  0.09891300  1
  O  O34  1  0.67796150  0.50000000  0.90108700  1
  O  O35  1  0.32203850  0.00000000  0.40108700  1
  O  O36  1  0.83832100  0.66825050  0.10647100  1
  O  O37  1  0.66167900  0.83174950  0.89352900  1
  O  O38  1  0.83832100  0.83174950  0.39352900  1
  O  O39  1  0.16167900  0.83174950  0.60647100  1
  O  O40  1  0.16167900  0.66825050  0.89352900  1
  O  O41  1  0.33832100  0.66825050  0.39352900  1
  O  O42  1  0.66167900  0.66825050  0.60647100  1
  O  O43  1  0.33832100  0.83174950  0.10647100  1
