# generated using pymatgen
data_Li2Mn7F16
_symmetry_space_group_name_H-M   'P 1'
_cell_length_a   6.51771207
_cell_length_b   6.51771207
_cell_length_c   26.45412439
_cell_angle_alpha   90.00000000
_cell_angle_beta   90.00000000
_cell_angle_gamma   120.00000000
_symmetry_Int_Tables_number   1
_chemical_formula_structural   Li2Mn7F16
_chemical_formula_sum   'Li6 Mn21 F48'
_cell_volume   973.22748422
_cell_formula_units_Z   3
loop_
 _symmetry_equiv_pos_site_id
 _symmetry_equiv_pos_as_xyz
  1  'x, y, z'
loop_
 _atom_site_type_symbol
 _atom_site_label
 _atom_site_symmetry_multiplicity
 _atom_site_fract_x
 _atom_site_fract_y
 _atom_site_fract_z
 _atom_site_occupancy
  Li  Li0  1  0.33333333  0.66666667  0.00070267  1
  Li  Li1  1  0.33333333  0.66666667  0.33263067  1
  Li  Li2  1  0.00000000  0.00000000  0.33403600  1
  Li  Li3  1  0.00000000  0.00000000  0.66596400  1
  Li  Li4  1  0.66666667  0.33333333  0.66736933  1
  Li  Li5  1  0.66666667  0.33333333  0.99929733  1
  Mn  Mn6  1  0.00000000  0.00000000  0.00000000  1
  Mn  Mn7  1  0.29899033  0.96680967  0.22142767  1
  Mn  Mn8  1  0.63347633  0.00115267  0.11190567  1
  Mn  Mn9  1  0.99884733  0.63232367  0.11190567  1
  Mn  Mn10  1  0.66781933  0.70100967  0.22142767  1
  Mn  Mn11  1  0.03319033  0.33218067  0.22142767  1
  Mn  Mn12  1  0.36767633  0.36652367  0.11190567  1
  Mn  Mn13  1  0.66666667  0.33333333  0.33333333  1
  Mn  Mn14  1  0.96565700  0.30014300  0.55476100  1
  Mn  Mn15  1  0.30014300  0.33448600  0.44523900  1
  Mn  Mn16  1  0.66551400  0.96565700  0.44523900  1
  Mn  Mn17  1  0.33448600  0.03434300  0.55476100  1
  Mn  Mn18  1  0.69985700  0.66551400  0.55476100  1
  Mn  Mn19  1  0.03434300  0.69985700  0.44523900  1
  Mn  Mn20  1  0.33333333  0.66666667  0.66666667  1
  Mn  Mn21  1  0.63232367  0.63347633  0.88809433  1
  Mn  Mn22  1  0.96680967  0.66781933  0.77857233  1
  Mn  Mn23  1  0.33218067  0.29899033  0.77857233  1
  Mn  Mn24  1  0.00115267  0.36767633  0.88809433  1
  Mn  Mn25  1  0.36652367  0.99884733  0.88809433  1
  Mn  Mn26  1  0.70100967  0.03319033  0.77857233  1
  F  F27  1  0.00000000  0.00000000  0.23741600  1
  F  F28  1  0.35478000  0.05216000  0.29752300  1
  F  F29  1  0.26838067  0.97762633  0.13676833  1
  F  F30  1  0.64429300  0.04257900  0.19656500  1
  F  F31  1  0.71882667  0.03071333  0.03581033  1
  F  F32  1  0.96928667  0.68811333  0.03581033  1
  F  F33  1  0.95742100  0.60171400  0.19656500  1
  F  F34  1  0.33333333  0.66666667  0.08301767  1
  F  F35  1  0.33333333  0.66666667  0.25031567  1
  F  F36  1  0.70924567  0.73161933  0.13676833  1
  F  F37  1  0.69738000  0.64522000  0.29752300  1
  F  F38  1  0.94784000  0.30262000  0.29752300  1
  F  F39  1  0.02237367  0.29075433  0.13676833  1
  F  F40  1  0.39828600  0.35570700  0.19656500  1
  F  F41  1  0.31188667  0.28117333  0.03581033  1
  F  F42  1  0.66666667  0.33333333  0.09591733  1
  F  F43  1  0.66666667  0.33333333  0.57074933  1
  F  F44  1  0.02144667  0.38549333  0.63085633  1
  F  F45  1  0.93504733  0.31095967  0.47010167  1
  F  F46  1  0.31095967  0.37591233  0.52989833  1
  F  F47  1  0.38549333  0.36404667  0.36914367  1
  F  F48  1  0.63595333  0.02144667  0.36914367  1
  F  F49  1  0.62408767  0.93504733  0.52989833  1
  F  F50  1  0.00000000  0.00000000  0.41635100  1
  F  F51  1  0.00000000  0.00000000  0.58364900  1
  F  F52  1  0.37591233  0.06495267  0.47010167  1
  F  F53  1  0.36404667  0.97855333  0.63085633  1
  F  F54  1  0.61450667  0.63595333  0.63085633  1
  F  F55  1  0.68904033  0.62408767  0.47010167  1
  F  F56  1  0.06495267  0.68904033  0.52989833  1
  F  F57  1  0.97855333  0.61450667  0.36914367  1
  F  F58  1  0.33333333  0.66666667  0.42925067  1
  F  F59  1  0.33333333  0.66666667  0.90408267  1
  F  F60  1  0.68811333  0.71882667  0.96418967  1
  F  F61  1  0.60171400  0.64429300  0.80343500  1
  F  F62  1  0.97762633  0.70924567  0.86323167  1
  F  F63  1  0.05216000  0.69738000  0.70247700  1
  F  F64  1  0.30262000  0.35478000  0.70247700  1
  F  F65  1  0.29075433  0.26838067  0.86323167  1
  F  F66  1  0.66666667  0.33333333  0.74968433  1
  F  F67  1  0.66666667  0.33333333  0.91698233  1
  F  F68  1  0.04257900  0.39828600  0.80343500  1
  F  F69  1  0.03071333  0.31188667  0.96418967  1
  F  F70  1  0.28117333  0.96928667  0.96418967  1
  F  F71  1  0.35570700  0.95742100  0.80343500  1
  F  F72  1  0.73161933  0.02237367  0.86323167  1
  F  F73  1  0.64522000  0.94784000  0.70247700  1
  F  F74  1  0.00000000  0.00000000  0.76258400  1
