# generated using pymatgen
data_Cr2PO5
_symmetry_space_group_name_H-M   'P 1'
_cell_length_a   7.53925870
_cell_length_b   8.08999801
_cell_length_c   7.14590051
_cell_angle_alpha   90.00000000
_cell_angle_beta   120.66274898
_cell_angle_gamma   90.00000000
_symmetry_Int_Tables_number   1
_chemical_formula_structural   Cr2PO5
_chemical_formula_sum   'Cr8 P4 O20'
_cell_volume   374.90859482
_cell_formula_units_Z   4
loop_
 _symmetry_equiv_pos_site_id
 _symmetry_equiv_pos_as_xyz
  1  'x, y, z'
loop_
 _atom_site_type_symbol
 _atom_site_label
 _atom_site_symmetry_multiplicity
 _atom_site_fract_x
 _atom_site_fract_y
 _atom_site_fract_z
 _atom_site_occupancy
  Cr  Cr0  1  0.50000000  0.00000000  0.50000000  1
  Cr  Cr1  1  0.75000000  0.75000000  0.00000000  1
  Cr  Cr2  1  0.50000000  0.00000000  0.00000000  1
  Cr  Cr3  1  0.75000000  0.25000000  0.50000000  1
  Cr  Cr4  1  0.00000000  0.50000000  0.50000000  1
  Cr  Cr5  1  0.25000000  0.25000000  0.00000000  1
  Cr  Cr6  1  0.00000000  0.50000000  0.00000000  1
  Cr  Cr7  1  0.25000000  0.75000000  0.50000000  1
  P  P8  1  0.50000000  0.39684000  0.75000000  1
  P  P9  1  0.50000000  0.60316000  0.25000000  1
  P  P10  1  0.00000000  0.89684000  0.75000000  1
  P  P11  1  0.00000000  0.10316000  0.25000000  1
  O  O12  1  0.50000000  0.13757100  0.25000000  1
  O  O13  1  0.50000000  0.86242900  0.75000000  1
  O  O14  1  0.81227550  0.01334050  0.61320200  1
  O  O15  1  0.18772450  0.01334050  0.88679800  1
  O  O16  1  0.81227550  0.98665950  0.11320200  1
  O  O17  1  0.18772450  0.98665950  0.38679800  1
  O  O18  1  0.55604450  0.28334050  0.61540100  1
  O  O19  1  0.44395550  0.28334050  0.88459900  1
  O  O20  1  0.55604450  0.71665950  0.11540100  1
  O  O21  1  0.44395550  0.71665950  0.38459900  1
  O  O22  1  0.00000000  0.63757100  0.25000000  1
  O  O23  1  0.00000000  0.36242900  0.75000000  1
  O  O24  1  0.31227550  0.51334050  0.61320200  1
  O  O25  1  0.68772450  0.51334050  0.88679800  1
  O  O26  1  0.31227550  0.48665950  0.11320200  1
  O  O27  1  0.68772450  0.48665950  0.38679800  1
  O  O28  1  0.05604450  0.78334050  0.61540100  1
  O  O29  1  0.94395550  0.78334050  0.88459900  1
  O  O30  1  0.05604450  0.21665950  0.11540100  1
  O  O31  1  0.94395550  0.21665950  0.38459900  1
