# generated using pymatgen
data_Mn5Sb(PO4)6
_symmetry_space_group_name_H-M   'P 1'
_cell_length_a   8.67769014
_cell_length_b   8.67769014
_cell_length_c   21.36406302
_cell_angle_alpha   90.00000000
_cell_angle_beta   90.00000000
_cell_angle_gamma   120.00000000
_symmetry_Int_Tables_number   1
_chemical_formula_structural   Mn5Sb(PO4)6
_chemical_formula_sum   'Mn15 Sb3 P18 O72'
_cell_volume   1393.22981065
_cell_formula_units_Z   3
loop_
 _symmetry_equiv_pos_site_id
 _symmetry_equiv_pos_as_xyz
  1  'x, y, z'
loop_
 _atom_site_type_symbol
 _atom_site_label
 _atom_site_symmetry_multiplicity
 _atom_site_fract_x
 _atom_site_fract_y
 _atom_site_fract_z
 _atom_site_occupancy
  Mn  Mn0  1  0.66666667  0.33333333  0.32764233  1
  Mn  Mn1  1  0.33333333  0.66666667  0.31214067  1
  Mn  Mn2  1  0.33333333  0.66666667  0.16732267  1
  Mn  Mn3  1  0.66666667  0.33333333  0.18740533  1
  Mn  Mn4  1  0.33333333  0.66666667  0.02263967  1
  Mn  Mn5  1  0.33333333  0.66666667  0.66097567  1
  Mn  Mn6  1  0.00000000  0.00000000  0.64547400  1
  Mn  Mn7  1  0.00000000  0.00000000  0.50065600  1
  Mn  Mn8  1  0.33333333  0.66666667  0.52073867  1
  Mn  Mn9  1  0.00000000  0.00000000  0.35597300  1
  Mn  Mn10  1  0.00000000  0.00000000  0.99430900  1
  Mn  Mn11  1  0.66666667  0.33333333  0.97880733  1
  Mn  Mn12  1  0.66666667  0.33333333  0.83398933  1
  Mn  Mn13  1  0.00000000  0.00000000  0.85407200  1
  Mn  Mn14  1  0.66666667  0.33333333  0.68930633  1
  Sb  Sb15  1  0.00000000  0.00000000  0.14412600  1
  Sb  Sb16  1  0.66666667  0.33333333  0.47745933  1
  Sb  Sb17  1  0.33333333  0.66666667  0.81079267  1
  P  P18  1  0.00122467  0.29576533  0.25120733  1
  P  P19  1  0.70423467  0.70545933  0.25120733  1
  P  P20  1  0.29454067  0.99877533  0.25120733  1
  P  P21  1  0.37669433  0.33740467  0.08412367  1
  P  P22  1  0.96071033  0.62330567  0.08412367  1
  P  P23  1  0.66259533  0.03928967  0.08412367  1
  P  P24  1  0.66789133  0.62909867  0.58454067  1
  P  P25  1  0.37090133  0.03879267  0.58454067  1
  P  P26  1  0.96120733  0.33210867  0.58454067  1
  P  P27  1  0.04336100  0.67073800  0.41745700  1
  P  P28  1  0.62737700  0.95663900  0.41745700  1
  P  P29  1  0.32926200  0.37262300  0.41745700  1
  P  P30  1  0.33455800  0.96243200  0.91787400  1
  P  P31  1  0.03756800  0.37212600  0.91787400  1
  P  P32  1  0.62787400  0.66544200  0.91787400  1
  P  P33  1  0.71002767  0.00407133  0.75079033  1
  P  P34  1  0.29404367  0.28997233  0.75079033  1
  P  P35  1  0.99592867  0.70595633  0.75079033  1
  O  O36  1  0.80456033  0.80313067  0.30946167  1
  O  O37  1  0.19686933  0.00142967  0.30946167  1
  O  O38  1  0.99857033  0.19543967  0.30946167  1
  O  O39  1  0.83021133  0.31049667  0.25395067  1
  O  O40  1  0.00278233  0.19849467  0.18904267  1
  O  O41  1  0.16822267  0.48120533  0.24349733  1
  O  O42  1  0.68950333  0.51971467  0.25395067  1
  O  O43  1  0.51879467  0.68701733  0.24349733  1
  O  O44  1  0.46999267  0.33841833  0.14429433  1
  O  O45  1  0.31298267  0.83177733  0.24349733  1
  O  O46  1  0.18056767  0.16230133  0.08012633  1
  O  O47  1  0.86842567  0.53000733  0.14429433  1
  O  O48  1  0.80150533  0.80428767  0.18904267  1
  O  O49  1  0.48028533  0.16978867  0.25395067  1
  O  O50  1  0.34714600  0.49921000  0.08921900  1
  O  O51  1  0.19571233  0.99721767  0.18904267  1
  O  O52  1  0.15206400  0.65285400  0.08921900  1
  O  O53  1  0.98173367  0.81943233  0.08012633  1
  O  O54  1  0.50079000  0.84793600  0.08921900  1
  O  O55  1  0.66158167  0.13157433  0.14429433  1
  O  O56  1  0.83769867  0.01826633  0.08012633  1
  O  O57  1  0.67365833  0.13434367  0.02354367  1
  O  O58  1  0.46068533  0.32634167  0.02354367  1
  O  O59  1  0.86565633  0.53931467  0.02354367  1
  O  O60  1  0.47122700  0.13646400  0.64279500  1
  O  O61  1  0.86353600  0.33476300  0.64279500  1
  O  O62  1  0.66523700  0.52877300  0.64279500  1
  O  O63  1  0.49687800  0.64383000  0.58728400  1
  O  O64  1  0.66944900  0.53182800  0.52237600  1
  O  O65  1  0.83488933  0.81453867  0.57683067  1
  O  O66  1  0.35617000  0.85304800  0.58728400  1
  O  O67  1  0.18546133  0.02035067  0.57683067  1
  O  O68  1  0.13665933  0.67175167  0.47762767  1
  O  O69  1  0.97964933  0.16511067  0.57683067  1
  O  O70  1  0.84723433  0.49563467  0.41345967  1
  O  O71  1  0.53509233  0.86334067  0.47762767  1
  O  O72  1  0.46817200  0.13762100  0.52237600  1
  O  O73  1  0.14695200  0.50312200  0.58728400  1
  O  O74  1  0.01381267  0.83254333  0.42255233  1
  O  O75  1  0.86237900  0.33055100  0.52237600  1
  O  O76  1  0.81873067  0.98618733  0.42255233  1
  O  O77  1  0.64840033  0.15276567  0.41345967  1
  O  O78  1  0.16745667  0.18126933  0.42255233  1
  O  O79  1  0.32824833  0.46490767  0.47762767  1
  O  O80  1  0.50436533  0.35159967  0.41345967  1
  O  O81  1  0.34032500  0.46767700  0.35687700  1
  O  O82  1  0.12735200  0.65967500  0.35687700  1
  O  O83  1  0.53232300  0.87264800  0.35687700  1
  O  O84  1  0.13789367  0.46979733  0.97612833  1
  O  O85  1  0.53020267  0.66809633  0.97612833  1
  O  O86  1  0.33190367  0.86210633  0.97612833  1
  O  O87  1  0.16354467  0.97716333  0.92061733  1
  O  O88  1  0.33611567  0.86516133  0.85570933  1
  O  O89  1  0.50155600  0.14787200  0.91016400  1
  O  O90  1  0.02283667  0.18638133  0.92061733  1
  O  O91  1  0.85212800  0.35368400  0.91016400  1
  O  O92  1  0.80332600  0.00508500  0.81096100  1
  O  O93  1  0.64631600  0.49844400  0.91016400  1
  O  O94  1  0.51390100  0.82896800  0.74679300  1
  O  O95  1  0.20175900  0.19667400  0.81096100  1
  O  O96  1  0.13483867  0.47095433  0.85570933  1
  O  O97  1  0.81361867  0.83645533  0.92061733  1
  O  O98  1  0.68047933  0.16587667  0.75588567  1
  O  O99  1  0.52904567  0.66388433  0.85570933  1
  O  O100  1  0.48539733  0.31952067  0.75588567  1
  O  O101  1  0.31506700  0.48609900  0.74679300  1
  O  O102  1  0.83412333  0.51460267  0.75588567  1
  O  O103  1  0.99491500  0.79824100  0.81096100  1
  O  O104  1  0.17103200  0.68493300  0.74679300  1
  O  O105  1  0.00699167  0.80101033  0.69021033  1
  O  O106  1  0.79401867  0.99300833  0.69021033  1
  O  O107  1  0.19898967  0.20598133  0.69021033  1
