# generated using pymatgen
data_Mn2OF3
_symmetry_space_group_name_H-M   'P 1'
_cell_length_a   6.69028000
_cell_length_b   7.12428400
_cell_length_c   15.87682700
_cell_angle_alpha   90.00000000
_cell_angle_beta   90.00000000
_cell_angle_gamma   90.00000000
_symmetry_Int_Tables_number   1
_chemical_formula_structural   Mn2OF3
_chemical_formula_sum   'Mn20 O10 F30'
_cell_volume   756.74442544
_cell_formula_units_Z   10
loop_
 _symmetry_equiv_pos_site_id
 _symmetry_equiv_pos_as_xyz
  1  'x, y, z'
loop_
 _atom_site_type_symbol
 _atom_site_label
 _atom_site_symmetry_multiplicity
 _atom_site_fract_x
 _atom_site_fract_y
 _atom_site_fract_z
 _atom_site_occupancy
  Mn  Mn0  1  0.02761300  0.00000000  0.29942500  1
  Mn  Mn1  1  0.96695600  0.00000000  0.09963700  1
  Mn  Mn2  1  0.96695600  0.00000000  0.90036300  1
  Mn  Mn3  1  0.02430000  0.00000000  0.50000000  1
  Mn  Mn4  1  0.02761300  0.00000000  0.70057500  1
  Mn  Mn5  1  0.49324200  0.00000000  0.39968700  1
  Mn  Mn6  1  0.49711000  0.00000000  0.00000000  1
  Mn  Mn7  1  0.49763000  0.00000000  0.19954900  1
  Mn  Mn8  1  0.49763000  0.00000000  0.80045100  1
  Mn  Mn9  1  0.49324200  0.00000000  0.60031300  1
  Mn  Mn10  1  0.52761300  0.50000000  0.29942500  1
  Mn  Mn11  1  0.46695600  0.50000000  0.09963700  1
  Mn  Mn12  1  0.46695600  0.50000000  0.90036300  1
  Mn  Mn13  1  0.52430000  0.50000000  0.50000000  1
  Mn  Mn14  1  0.52761300  0.50000000  0.70057500  1
  Mn  Mn15  1  0.99324200  0.50000000  0.39968700  1
  Mn  Mn16  1  0.99711000  0.50000000  0.00000000  1
  Mn  Mn17  1  0.99763000  0.50000000  0.19954900  1
  Mn  Mn18  1  0.99763000  0.50000000  0.80045100  1
  Mn  Mn19  1  0.99324200  0.50000000  0.60031300  1
  O  O20  1  0.32329900  0.00000000  0.29781700  1
  O  O21  1  0.31522600  0.00000000  0.50000000  1
  O  O22  1  0.32329900  0.00000000  0.70218300  1
  O  O23  1  0.67046600  0.00000000  0.90000600  1
  O  O24  1  0.67046600  0.00000000  0.09999400  1
  O  O25  1  0.82329900  0.50000000  0.29781700  1
  O  O26  1  0.81522600  0.50000000  0.50000000  1
  O  O27  1  0.82329900  0.50000000  0.70218300  1
  O  O28  1  0.17046600  0.50000000  0.90000600  1
  O  O29  1  0.17046600  0.50000000  0.09999400  1
  F  F30  1  0.49798050  0.29913150  0.80042300  1
  F  F31  1  0.47858900  0.30524100  0.00000000  1
  F  F32  1  0.49798050  0.29913150  0.19957700  1
  F  F33  1  0.51382700  0.30622700  0.40091400  1
  F  F34  1  0.51382700  0.30622700  0.59908600  1
  F  F35  1  0.28489900  0.00000000  0.90479800  1
  F  F36  1  0.28489900  0.00000000  0.09520200  1
  F  F37  1  0.71130100  0.00000000  0.30403300  1
  F  F38  1  0.70814600  0.00000000  0.50000000  1
  F  F39  1  0.71130100  0.00000000  0.69596700  1
  F  F40  1  0.47858900  0.69475900  0.00000000  1
  F  F41  1  0.49798050  0.70086850  0.19957700  1
  F  F42  1  0.51382700  0.69377300  0.40091400  1
  F  F43  1  0.49798050  0.70086850  0.80042300  1
  F  F44  1  0.51382700  0.69377300  0.59908600  1
  F  F45  1  0.99798050  0.79913150  0.80042300  1
  F  F46  1  0.97858900  0.80524100  0.00000000  1
  F  F47  1  0.99798050  0.79913150  0.19957700  1
  F  F48  1  0.01382700  0.80622700  0.40091400  1
  F  F49  1  0.01382700  0.80622700  0.59908600  1
  F  F50  1  0.78489900  0.50000000  0.90479800  1
  F  F51  1  0.78489900  0.50000000  0.09520200  1
  F  F52  1  0.21130100  0.50000000  0.30403300  1
  F  F53  1  0.20814600  0.50000000  0.50000000  1
  F  F54  1  0.21130100  0.50000000  0.69596700  1
  F  F55  1  0.97858900  0.19475900  0.00000000  1
  F  F56  1  0.99798050  0.20086850  0.19957700  1
  F  F57  1  0.01382700  0.19377300  0.40091400  1
  F  F58  1  0.99798050  0.20086850  0.80042300  1
  F  F59  1  0.01382700  0.19377300  0.59908600  1
