# generated using pymatgen
data_Al(NiO2)2
_symmetry_space_group_name_H-M   'P 1'
_cell_length_a   8.20768800
_cell_length_b   8.20768800
_cell_length_c   8.20768800
_cell_angle_alpha   90.00000000
_cell_angle_beta   90.00000000
_cell_angle_gamma   90.00000000
_symmetry_Int_Tables_number   1
_chemical_formula_structural   Al(NiO2)2
_chemical_formula_sum   'Al8 Ni16 O32'
_cell_volume   552.92027781
_cell_formula_units_Z   8
loop_
 _symmetry_equiv_pos_site_id
 _symmetry_equiv_pos_as_xyz
  1  'x, y, z'
loop_
 _atom_site_type_symbol
 _atom_site_label
 _atom_site_symmetry_multiplicity
 _atom_site_fract_x
 _atom_site_fract_y
 _atom_site_fract_z
 _atom_site_occupancy
  Al  Al0  1  0.25000000  0.25000000  0.25000000  1
  Al  Al1  1  0.50000000  0.00000000  0.50000000  1
  Al  Al2  1  0.25000000  0.75000000  0.75000000  1
  Al  Al3  1  0.50000000  0.50000000  0.00000000  1
  Al  Al4  1  0.75000000  0.25000000  0.75000000  1
  Al  Al5  1  0.00000000  0.00000000  0.00000000  1
  Al  Al6  1  0.75000000  0.75000000  0.25000000  1
  Al  Al7  1  0.00000000  0.50000000  0.50000000  1
  Ni  Ni8  1  0.37500000  0.62500000  0.37500000  1
  Ni  Ni9  1  0.37500000  0.87500000  0.12500000  1
  Ni  Ni10  1  0.12500000  0.87500000  0.37500000  1
  Ni  Ni11  1  0.12500000  0.62500000  0.12500000  1
  Ni  Ni12  1  0.37500000  0.12500000  0.87500000  1
  Ni  Ni13  1  0.37500000  0.37500000  0.62500000  1
  Ni  Ni14  1  0.12500000  0.37500000  0.87500000  1
  Ni  Ni15  1  0.12500000  0.12500000  0.62500000  1
  Ni  Ni16  1  0.87500000  0.62500000  0.87500000  1
  Ni  Ni17  1  0.87500000  0.87500000  0.62500000  1
  Ni  Ni18  1  0.62500000  0.87500000  0.87500000  1
  Ni  Ni19  1  0.62500000  0.62500000  0.62500000  1
  Ni  Ni20  1  0.87500000  0.12500000  0.37500000  1
  Ni  Ni21  1  0.87500000  0.37500000  0.12500000  1
  Ni  Ni22  1  0.62500000  0.37500000  0.37500000  1
  Ni  Ni23  1  0.62500000  0.12500000  0.12500000  1
  O  O24  1  0.37713567  0.12286433  0.12286433  1
  O  O25  1  0.37713567  0.37713567  0.37713567  1
  O  O26  1  0.12713567  0.87286433  0.12713567  1
  O  O27  1  0.62713567  0.12713567  0.37286433  1
  O  O28  1  0.12286433  0.12286433  0.37713567  1
  O  O29  1  0.12286433  0.37713567  0.12286433  1
  O  O30  1  0.87286433  0.12713567  0.12713567  1
  O  O31  1  0.37286433  0.87286433  0.37286433  1
  O  O32  1  0.37713567  0.62286433  0.62286433  1
  O  O33  1  0.37713567  0.87713567  0.87713567  1
  O  O34  1  0.12713567  0.37286433  0.62713567  1
  O  O35  1  0.62713567  0.62713567  0.87286433  1
  O  O36  1  0.12286433  0.62286433  0.87713567  1
  O  O37  1  0.12286433  0.87713567  0.62286433  1
  O  O38  1  0.87286433  0.62713567  0.62713567  1
  O  O39  1  0.37286433  0.37286433  0.87286433  1
  O  O40  1  0.87713567  0.12286433  0.62286433  1
  O  O41  1  0.87713567  0.37713567  0.87713567  1
  O  O42  1  0.62713567  0.87286433  0.62713567  1
  O  O43  1  0.12713567  0.12713567  0.87286433  1
  O  O44  1  0.62286433  0.12286433  0.87713567  1
  O  O45  1  0.62286433  0.37713567  0.62286433  1
  O  O46  1  0.37286433  0.12713567  0.62713567  1
  O  O47  1  0.87286433  0.87286433  0.87286433  1
  O  O48  1  0.87713567  0.62286433  0.12286433  1
  O  O49  1  0.87713567  0.87713567  0.37713567  1
  O  O50  1  0.62713567  0.37286433  0.12713567  1
  O  O51  1  0.12713567  0.62713567  0.37286433  1
  O  O52  1  0.62286433  0.62286433  0.37713567  1
  O  O53  1  0.62286433  0.87713567  0.12286433  1
  O  O54  1  0.37286433  0.62713567  0.12713567  1
  O  O55  1  0.87286433  0.37286433  0.37286433  1
