# generated using pymatgen
data_Na5Mn7O16
_symmetry_space_group_name_H-M   'P 1'
_cell_length_a   10.90135800
_cell_length_b   5.90291600
_cell_length_c   10.70690489
_cell_angle_alpha   90.00000000
_cell_angle_beta   107.20167513
_cell_angle_gamma   90.00000000
_symmetry_Int_Tables_number   1
_chemical_formula_structural   Na5Mn7O16
_chemical_formula_sum   'Na10 Mn14 O32'
_cell_volume   658.16860183
_cell_formula_units_Z   2
loop_
 _symmetry_equiv_pos_site_id
 _symmetry_equiv_pos_as_xyz
  1  'x, y, z'
loop_
 _atom_site_type_symbol
 _atom_site_label
 _atom_site_symmetry_multiplicity
 _atom_site_fract_x
 _atom_site_fract_y
 _atom_site_fract_z
 _atom_site_occupancy
  Na  Na0  1  0.76290300  0.00000000  0.43725700  1
  Na  Na1  1  0.69627500  0.00000000  0.08371100  1
  Na  Na2  1  0.00000000  0.00000000  0.50000000  1
  Na  Na3  1  0.80372500  0.50000000  0.91628900  1
  Na  Na4  1  0.73709700  0.50000000  0.56274300  1
  Na  Na5  1  0.26290300  0.50000000  0.43725700  1
  Na  Na6  1  0.19627500  0.50000000  0.08371100  1
  Na  Na7  1  0.50000000  0.50000000  0.50000000  1
  Na  Na8  1  0.30372500  0.00000000  0.91628900  1
  Na  Na9  1  0.23709700  0.00000000  0.56274300  1
  Mn  Mn10  1  0.00000000  0.00000000  0.00000000  1
  Mn  Mn11  1  0.97938500  0.25641900  0.23626600  1
  Mn  Mn12  1  0.73634300  0.50000000  0.23786800  1
  Mn  Mn13  1  0.76365700  0.00000000  0.76213200  1
  Mn  Mn14  1  0.52061500  0.75641900  0.76373400  1
  Mn  Mn15  1  0.97938500  0.74358100  0.23626600  1
  Mn  Mn16  1  0.52061500  0.24358100  0.76373400  1
  Mn  Mn17  1  0.50000000  0.50000000  0.00000000  1
  Mn  Mn18  1  0.47938500  0.75641900  0.23626600  1
  Mn  Mn19  1  0.23634300  0.00000000  0.23786800  1
  Mn  Mn20  1  0.26365700  0.50000000  0.76213200  1
  Mn  Mn21  1  0.02061500  0.25641900  0.76373400  1
  Mn  Mn22  1  0.47938500  0.24358100  0.23626600  1
  Mn  Mn23  1  0.02061500  0.74358100  0.76373400  1
  O  O24  1  0.60132000  0.71383500  0.12917700  1
  O  O25  1  0.89796100  0.00000000  0.11872100  1
  O  O26  1  0.91348500  0.00000000  0.66206600  1
  O  O27  1  0.56776500  0.00000000  0.33055200  1
  O  O28  1  0.87684000  0.50000000  0.13453500  1
  O  O29  1  0.85026800  0.26054500  0.32412300  1
  O  O30  1  0.89868000  0.21383500  0.87082300  1
  O  O31  1  0.85026800  0.73945500  0.32412300  1
  O  O32  1  0.64973200  0.76054500  0.67587700  1
  O  O33  1  0.64973200  0.23945500  0.67587700  1
  O  O34  1  0.60132000  0.28616500  0.12917700  1
  O  O35  1  0.93223500  0.50000000  0.66944800  1
  O  O36  1  0.62316000  0.00000000  0.86546500  1
  O  O37  1  0.58651500  0.50000000  0.33793400  1
  O  O38  1  0.60203900  0.50000000  0.88127900  1
  O  O39  1  0.89868000  0.78616500  0.87082300  1
  O  O40  1  0.10132000  0.21383500  0.12917700  1
  O  O41  1  0.39796100  0.50000000  0.11872100  1
  O  O42  1  0.41348500  0.50000000  0.66206600  1
  O  O43  1  0.06776500  0.50000000  0.33055200  1
  O  O44  1  0.37684000  0.00000000  0.13453500  1
  O  O45  1  0.35026800  0.76054500  0.32412300  1
  O  O46  1  0.39868000  0.71383500  0.87082300  1
  O  O47  1  0.35026800  0.23945500  0.32412300  1
  O  O48  1  0.14973200  0.26054500  0.67587700  1
  O  O49  1  0.14973200  0.73945500  0.67587700  1
  O  O50  1  0.10132000  0.78616500  0.12917700  1
  O  O51  1  0.43223500  0.00000000  0.66944800  1
  O  O52  1  0.12316000  0.50000000  0.86546500  1
  O  O53  1  0.08651500  0.00000000  0.33793400  1
  O  O54  1  0.10203900  0.00000000  0.88127900  1
  O  O55  1  0.39868000  0.28616500  0.87082300  1
