# generated using pymatgen
data_Fe2Ni3Sb(PO4)6
_symmetry_space_group_name_H-M   'P 1'
_cell_length_a   8.67622227
_cell_length_b   8.67622227
_cell_length_c   20.43506617
_cell_angle_alpha   90.00000000
_cell_angle_beta   90.00000000
_cell_angle_gamma   120.00000000
_symmetry_Int_Tables_number   1
_chemical_formula_structural   Fe2Ni3Sb(PO4)6
_chemical_formula_sum   'Fe6 Ni9 Sb3 P18 O72'
_cell_volume   1332.19567366
_cell_formula_units_Z   3
loop_
 _symmetry_equiv_pos_site_id
 _symmetry_equiv_pos_as_xyz
  1  'x, y, z'
loop_
 _atom_site_type_symbol
 _atom_site_label
 _atom_site_symmetry_multiplicity
 _atom_site_fract_x
 _atom_site_fract_y
 _atom_site_fract_z
 _atom_site_occupancy
  Fe  Fe0  1  0.33333333  0.66666667  0.67670867  1
  Fe  Fe1  1  0.33333333  0.66666667  0.16587267  1
  Fe  Fe2  1  0.00000000  0.00000000  0.01004200  1
  Fe  Fe3  1  0.00000000  0.00000000  0.49920600  1
  Fe  Fe4  1  0.66666667  0.33333333  0.34337533  1
  Fe  Fe5  1  0.66666667  0.33333333  0.83253933  1
  Ni  Ni6  1  0.33333333  0.66666667  0.81268267  1
  Ni  Ni7  1  0.33333333  0.66666667  0.02273167  1
  Ni  Ni8  1  0.33333333  0.66666667  0.30863667  1
  Ni  Ni9  1  0.00000000  0.00000000  0.14601600  1
  Ni  Ni10  1  0.00000000  0.00000000  0.35606500  1
  Ni  Ni11  1  0.00000000  0.00000000  0.64197000  1
  Ni  Ni12  1  0.66666667  0.33333333  0.47934933  1
  Ni  Ni13  1  0.66666667  0.33333333  0.68939833  1
  Ni  Ni14  1  0.66666667  0.33333333  0.97530333  1
  Sb  Sb15  1  0.33333333  0.66666667  0.52388567  1
  Sb  Sb16  1  0.00000000  0.00000000  0.85721900  1
  Sb  Sb17  1  0.66666667  0.33333333  0.19055233  1
  P  P18  1  0.37186800  0.03345800  0.08148500  1
  P  P19  1  0.29329600  0.29870700  0.24877400  1
  P  P20  1  0.70129300  0.99458900  0.24877400  1
  P  P21  1  0.00541100  0.70670400  0.24877400  1
  P  P22  1  0.66159000  0.62813200  0.08148500  1
  P  P23  1  0.96654200  0.33841000  0.08148500  1
  P  P24  1  0.03853467  0.36679133  0.41481833  1
  P  P25  1  0.95996267  0.63204033  0.58210733  1
  P  P26  1  0.36795967  0.32792233  0.58210733  1
  P  P27  1  0.67207767  0.04003733  0.58210733  1
  P  P28  1  0.32825667  0.96146533  0.41481833  1
  P  P29  1  0.63320867  0.67174333  0.41481833  1
  P  P30  1  0.70520133  0.70012467  0.74815167  1
  P  P31  1  0.62662933  0.96537367  0.91544067  1
  P  P32  1  0.03462633  0.66125567  0.91544067  1
  P  P33  1  0.33874433  0.37337067  0.91544067  1
  P  P34  1  0.99492333  0.29479867  0.74815167  1
  P  P35  1  0.29987533  0.00507667  0.74815167  1
  O  O36  1  0.33991633  0.46532667  0.97802867  1
  O  O37  1  0.53467333  0.87458967  0.97802867  1
  O  O38  1  0.83032633  0.81745967  0.07253767  1
  O  O39  1  0.12541033  0.66008367  0.97802867  1
  O  O40  1  0.67306300  0.53636200  0.14666400  1
  O  O41  1  0.50023167  0.65392133  0.09652933  1
  O  O42  1  0.98713333  0.16967367  0.07253767  1
  O  O43  1  0.15368967  0.49976833  0.09652933  1
  O  O44  1  0.20857133  0.19890167  0.18660567  1
  O  O45  1  0.34607867  0.84631033  0.09652933  1
  O  O46  1  0.49257800  0.32315300  0.25975300  1
  O  O47  1  0.80109833  0.00966967  0.18660567  1
  O  O48  1  0.86329900  0.32693700  0.14666400  1
  O  O49  1  0.18254033  0.01286667  0.07253767  1
  O  O50  1  0.32743233  0.49094567  0.23708767  1
  O  O51  1  0.46363800  0.13670100  0.14666400  1
  O  O52  1  0.50905433  0.83648667  0.23708767  1
  O  O53  1  0.67684700  0.16942500  0.25975300  1
  O  O54  1  0.16351333  0.67256767  0.23708767  1
  O  O55  1  0.99033033  0.79142867  0.18660567  1
  O  O56  1  0.53926233  0.68394467  0.35569667  1
  O  O57  1  0.83057500  0.50742200  0.25975300  1
  O  O58  1  0.14468233  0.46073767  0.35569667  1
  O  O59  1  0.31605533  0.85531767  0.35569667  1
  O  O60  1  0.00658300  0.79866000  0.31136200  1
  O  O61  1  0.20134000  0.20792300  0.31136200  1
  O  O62  1  0.49699300  0.15079300  0.40587100  1
  O  O63  1  0.79207700  0.99341700  0.31136200  1
  O  O64  1  0.33972967  0.86969533  0.47999733  1
  O  O65  1  0.16689833  0.98725467  0.42986267  1
  O  O66  1  0.65380000  0.50300700  0.40587100  1
  O  O67  1  0.82035633  0.83310167  0.42986267  1
  O  O68  1  0.87523800  0.53223500  0.51993900  1
  O  O69  1  0.01274533  0.17964367  0.42986267  1
  O  O70  1  0.15924467  0.65648633  0.59308633  1
  O  O71  1  0.46776500  0.34300300  0.51993900  1
  O  O72  1  0.52996567  0.66027033  0.47999733  1
  O  O73  1  0.84920700  0.34620000  0.40587100  1
  O  O74  1  0.99409900  0.82427900  0.57042100  1
  O  O75  1  0.13030467  0.47003433  0.47999733  1
  O  O76  1  0.17572100  0.16982000  0.57042100  1
  O  O77  1  0.34351367  0.50275833  0.59308633  1
  O  O78  1  0.83018000  0.00590100  0.57042100  1
  O  O79  1  0.65699700  0.12476200  0.51993900  1
  O  O80  1  0.20592900  0.01727800  0.68903000  1
  O  O81  1  0.49724167  0.84075533  0.59308633  1
  O  O82  1  0.81134900  0.79407100  0.68903000  1
  O  O83  1  0.98272200  0.18865100  0.68903000  1
  O  O84  1  0.67324967  0.13199333  0.64469533  1
  O  O85  1  0.86800667  0.54125633  0.64469533  1
  O  O86  1  0.16365967  0.48412633  0.73920433  1
  O  O87  1  0.45874367  0.32675033  0.64469533  1
  O  O88  1  0.00639633  0.20302867  0.81333067  1
  O  O89  1  0.83356500  0.32058800  0.76319600  1
  O  O90  1  0.32046667  0.83634033  0.73920433  1
  O  O91  1  0.48702300  0.16643500  0.76319600  1
  O  O92  1  0.54190467  0.86556833  0.85327233  1
  O  O93  1  0.67941200  0.51297700  0.76319600  1
  O  O94  1  0.82591133  0.98981967  0.92641967  1
  O  O95  1  0.13443167  0.67633633  0.85327233  1
  O  O96  1  0.19663233  0.99360367  0.81333067  1
  O  O97  1  0.51587367  0.67953333  0.73920433  1
  O  O98  1  0.66076567  0.15761233  0.90375433  1
  O  O99  1  0.79697133  0.80336767  0.81333067  1
  O  O100  1  0.84238767  0.50315333  0.90375433  1
  O  O101  1  0.01018033  0.83609167  0.92641967  1
  O  O102  1  0.49684667  0.33923433  0.90375433  1
  O  O103  1  0.32366367  0.45809533  0.85327233  1
  O  O104  1  0.87259567  0.35061133  0.02236333  1
  O  O105  1  0.16390833  0.17408867  0.92641967  1
  O  O106  1  0.47801567  0.12740433  0.02236333  1
  O  O107  1  0.64938867  0.52198433  0.02236333  1
