# generated using pymatgen
data_VFe(PO4)2
_symmetry_space_group_name_H-M   'P 1'
_cell_length_a   8.66342392
_cell_length_b   8.66342392
_cell_length_c   20.64844097
_cell_angle_alpha   90.00000000
_cell_angle_beta   90.00000000
_cell_angle_gamma   120.00000000
_symmetry_Int_Tables_number   1
_chemical_formula_structural   VFe(PO4)2
_chemical_formula_sum   'V9 Fe9 P18 O72'
_cell_volume   1342.13755881
_cell_formula_units_Z   9
loop_
 _symmetry_equiv_pos_site_id
 _symmetry_equiv_pos_as_xyz
  1  'x, y, z'
loop_
 _atom_site_type_symbol
 _atom_site_label
 _atom_site_symmetry_multiplicity
 _atom_site_fract_x
 _atom_site_fract_y
 _atom_site_fract_z
 _atom_site_occupancy
  V  V0  1  0.33333333  0.66666667  0.02377467  1
  V  V1  1  0.33333333  0.66666667  0.80835233  1
  V  V2  1  0.33333333  0.66666667  0.30951933  1
  V  V3  1  0.00000000  0.00000000  0.35710800  1
  V  V4  1  0.00000000  0.00000000  0.14168567  1
  V  V5  1  0.00000000  0.00000000  0.64285267  1
  V  V6  1  0.66666667  0.33333333  0.69044133  1
  V  V7  1  0.66666667  0.33333333  0.47501900  1
  V  V8  1  0.66666667  0.33333333  0.97618600  1
  Fe  Fe9  1  0.33333333  0.66666667  0.66551800  1
  Fe  Fe10  1  0.33333333  0.66666667  0.52335533  1
  Fe  Fe11  1  0.33333333  0.66666667  0.16630400  1
  Fe  Fe12  1  0.00000000  0.00000000  0.99885133  1
  Fe  Fe13  1  0.00000000  0.00000000  0.85668867  1
  Fe  Fe14  1  0.00000000  0.00000000  0.49963733  1
  Fe  Fe15  1  0.66666667  0.33333333  0.33218467  1
  Fe  Fe16  1  0.66666667  0.33333333  0.19002200  1
  Fe  Fe17  1  0.66666667  0.33333333  0.83297067  1
  P  P18  1  0.95970400  0.62660900  0.08336200  1
  P  P19  1  0.37339100  0.33309500  0.08336200  1
  P  P20  1  0.66690500  0.04029600  0.08336200  1
  P  P21  1  0.00031667  0.29204733  0.25035733  1
  P  P22  1  0.29173067  0.99968333  0.25035733  1
  P  P23  1  0.70795267  0.70826933  0.25035733  1
  P  P24  1  0.62637067  0.95994233  0.41669533  1
  P  P25  1  0.04005767  0.66642833  0.41669533  1
  P  P26  1  0.33357167  0.37362933  0.41669533  1
  P  P27  1  0.66698333  0.62538067  0.58369067  1
  P  P28  1  0.95839733  0.33301667  0.58369067  1
  P  P29  1  0.37461933  0.04160267  0.58369067  1
  P  P30  1  0.29303733  0.29327567  0.75002867  1
  P  P31  1  0.70672433  0.99976167  0.75002867  1
  P  P32  1  0.00023833  0.70696267  0.75002867  1
  P  P33  1  0.33365000  0.95871400  0.91702400  1
  P  P34  1  0.62506400  0.66635000  0.91702400  1
  P  P35  1  0.04128600  0.37493600  0.91702400  1
  O  O36  1  0.14079667  0.66781233  0.35492733  1
  O  O37  1  0.33218767  0.47298433  0.35492733  1
  O  O38  1  0.52701567  0.85920333  0.35492733  1
  O  O39  1  0.98248933  0.81650167  0.07593267  1
  O  O40  1  0.86421667  0.53159633  0.14497833  1
  O  O41  1  0.15100900  0.65000300  0.08832900  1
  O  O42  1  0.18349833  0.16598767  0.07593267  1
  O  O43  1  0.34999700  0.50100600  0.08832900  1
  O  O44  1  0.99903900  0.19188500  0.18887600  1
  O  O45  1  0.49899400  0.84899100  0.08832900  1
  O  O46  1  0.83379900  0.31205500  0.25897100  1
  O  O47  1  0.19284600  0.00096100  0.18887600  1
  O  O48  1  0.46840367  0.33262033  0.14497833  1
  O  O49  1  0.83401233  0.01751067  0.07593267  1
  O  O50  1  0.16877800  0.48180000  0.24367700  1
  O  O51  1  0.66737967  0.13578333  0.14497833  1
  O  O52  1  0.31302200  0.83122200  0.24367700  1
  O  O53  1  0.47825600  0.16620100  0.25897100  1
  O  O54  1  0.51820000  0.68697800  0.24367700  1
  O  O55  1  0.80811500  0.80715400  0.18887600  1
  O  O56  1  0.68794500  0.52174400  0.25897100  1
  O  O57  1  0.13893333  0.48011667  0.97831867  1
  O  O58  1  0.34118333  0.86106667  0.97831867  1
  O  O59  1  0.51988333  0.65881667  0.97831867  1
  O  O60  1  0.80746333  0.00114567  0.68826067  1
  O  O61  1  0.99885433  0.80631767  0.68826067  1
  O  O62  1  0.19368233  0.19253667  0.68826067  1
  O  O63  1  0.64915600  0.14983500  0.40926600  1
  O  O64  1  0.53088333  0.86492967  0.47831167  1
  O  O65  1  0.81767567  0.98333633  0.42166233  1
  O  O66  1  0.85016500  0.49932100  0.40926600  1
  O  O67  1  0.01666367  0.83433933  0.42166233  1
  O  O68  1  0.66570567  0.52521833  0.52220933  1
  O  O69  1  0.16566067  0.18232433  0.42166233  1
  O  O70  1  0.50046567  0.64538833  0.59230433  1
  O  O71  1  0.85951267  0.33429433  0.52220933  1
  O  O72  1  0.13507033  0.66595367  0.47831167  1
  O  O73  1  0.50067900  0.35084400  0.40926600  1
  O  O74  1  0.83544467  0.81513333  0.57701033  1
  O  O75  1  0.33404633  0.46911667  0.47831167  1
  O  O76  1  0.97968867  0.16455533  0.57701033  1
  O  O77  1  0.14492267  0.49953433  0.59230433  1
  O  O78  1  0.18486667  0.02031133  0.57701033  1
  O  O79  1  0.47478167  0.14048733  0.52220933  1
  O  O80  1  0.35461167  0.85507733  0.59230433  1
  O  O81  1  0.80560000  0.81345000  0.31165200  1
  O  O82  1  0.00785000  0.19440000  0.31165200  1
  O  O83  1  0.18655000  0.99215000  0.31165200  1
  O  O84  1  0.47413000  0.33447900  0.02159400  1
  O  O85  1  0.66552100  0.13965100  0.02159400  1
  O  O86  1  0.86034900  0.52587000  0.02159400  1
  O  O87  1  0.31582267  0.48316833  0.74259933  1
  O  O88  1  0.19755000  0.19826300  0.81164500  1
  O  O89  1  0.48434233  0.31666967  0.75499567  1
  O  O90  1  0.51683167  0.83265433  0.74259933  1
  O  O91  1  0.68333033  0.16767267  0.75499567  1
  O  O92  1  0.33237233  0.85855167  0.85554267  1
  O  O93  1  0.83232733  0.51565767  0.75499567  1
  O  O94  1  0.16713233  0.97872167  0.92563767  1
  O  O95  1  0.52617933  0.66762767  0.85554267  1
  O  O96  1  0.80173700  0.99928700  0.81164500  1
  O  O97  1  0.16734567  0.68417733  0.74259933  1
  O  O98  1  0.50211133  0.14846667  0.91034367  1
  O  O99  1  0.00071300  0.80245000  0.81164500  1
  O  O100  1  0.64635533  0.49788867  0.91034367  1
  O  O101  1  0.81158933  0.83286767  0.92563767  1
  O  O102  1  0.85153333  0.35364467  0.91034367  1
  O  O103  1  0.14144833  0.47382067  0.85554267  1
  O  O104  1  0.02127833  0.18841067  0.92563767  1
  O  O105  1  0.47226667  0.14678333  0.64498533  1
  O  O106  1  0.67451667  0.52773333  0.64498533  1
  O  O107  1  0.85321667  0.32548333  0.64498533  1
