# generated using pymatgen
data_Li4Ni3O6F
_symmetry_space_group_name_H-M   'P 1'
_cell_length_a   9.21869800
_cell_length_b   4.14074600
_cell_length_c   6.37425734
_cell_angle_alpha   90.00000000
_cell_angle_beta   98.34564336
_cell_angle_gamma   90.00000000
_symmetry_Int_Tables_number   1
_chemical_formula_structural   Li4Ni3O6F
_chemical_formula_sum   'Li8 Ni6 O12 F2'
_cell_volume   240.74333742
_cell_formula_units_Z   2
loop_
 _symmetry_equiv_pos_site_id
 _symmetry_equiv_pos_as_xyz
  1  'x, y, z'
loop_
 _atom_site_type_symbol
 _atom_site_label
 _atom_site_symmetry_multiplicity
 _atom_site_fract_x
 _atom_site_fract_y
 _atom_site_fract_z
 _atom_site_occupancy
  Li  Li0  1  0.92493300  0.50000000  0.28850200  1
  Li  Li1  1  0.71967100  0.00000000  0.14274100  1
  Li  Li2  1  0.78032900  0.50000000  0.85725900  1
  Li  Li3  1  0.57506700  0.00000000  0.71149800  1
  Li  Li4  1  0.42493300  0.00000000  0.28850200  1
  Li  Li5  1  0.21967100  0.50000000  0.14274100  1
  Li  Li6  1  0.28032900  0.00000000  0.85725900  1
  Li  Li7  1  0.07506700  0.50000000  0.71149800  1
  Ni  Ni8  1  0.64301400  0.50000000  0.42586100  1
  Ni  Ni9  1  0.00000000  0.00000000  0.00000000  1
  Ni  Ni10  1  0.85698600  0.00000000  0.57413900  1
  Ni  Ni11  1  0.14301400  0.00000000  0.42586100  1
  Ni  Ni12  1  0.50000000  0.50000000  0.00000000  1
  Ni  Ni13  1  0.35698600  0.50000000  0.57413900  1
  O  O14  1  0.69285600  0.50000000  0.13588500  1
  O  O15  1  0.65778200  0.00000000  0.43924600  1
  O  O16  1  0.94438700  0.00000000  0.28280700  1
  O  O17  1  0.80714400  0.00000000  0.86411500  1
  O  O18  1  0.84221800  0.50000000  0.56075400  1
  O  O19  1  0.55561300  0.50000000  0.71719300  1
  O  O20  1  0.19285600  0.00000000  0.13588500  1
  O  O21  1  0.15778200  0.50000000  0.43924600  1
  O  O22  1  0.44438700  0.50000000  0.28280700  1
  O  O23  1  0.30714400  0.50000000  0.86411500  1
  O  O24  1  0.34221800  0.00000000  0.56075400  1
  O  O25  1  0.05561300  0.00000000  0.71719300  1
  F  F26  1  0.00000000  0.50000000  0.00000000  1
  F  F27  1  0.50000000  0.00000000  0.00000000  1
