# generated using pymatgen
data_Li5Cr3NiO8
_symmetry_space_group_name_H-M   'P 1'
_cell_length_a   5.95593400
_cell_length_b   10.40200200
_cell_length_c   9.81932000
_cell_angle_alpha   90.00000000
_cell_angle_beta   90.00000000
_cell_angle_gamma   90.00000000
_symmetry_Int_Tables_number   1
_chemical_formula_structural   Li5Cr3NiO8
_chemical_formula_sum   'Li20 Cr12 Ni4 O32'
_cell_volume   608.34259060
_cell_formula_units_Z   4
loop_
 _symmetry_equiv_pos_site_id
 _symmetry_equiv_pos_as_xyz
  1  'x, y, z'
loop_
 _atom_site_type_symbol
 _atom_site_label
 _atom_site_symmetry_multiplicity
 _atom_site_fract_x
 _atom_site_fract_y
 _atom_site_fract_z
 _atom_site_occupancy
  Li  Li0  1  0.00000000  0.49471400  0.98562300  1
  Li  Li1  1  0.50000000  0.00528600  0.48562300  1
  Li  Li2  1  0.71235150  0.39977950  0.55991300  1
  Li  Li3  1  0.28764850  0.39977950  0.55991300  1
  Li  Li4  1  0.50000000  0.20118400  0.55635000  1
  Li  Li5  1  0.50000000  0.32844000  0.78368200  1
  Li  Li6  1  0.21235150  0.10022050  0.05991300  1
  Li  Li7  1  0.00000000  0.29881600  0.05635000  1
  Li  Li8  1  0.00000000  0.17156000  0.28368200  1
  Li  Li9  1  0.78764850  0.10022050  0.05991300  1
  Li  Li10  1  0.50000000  0.99471400  0.98562300  1
  Li  Li11  1  0.00000000  0.50528600  0.48562300  1
  Li  Li12  1  0.21235150  0.89977950  0.55991300  1
  Li  Li13  1  0.78764850  0.89977950  0.55991300  1
  Li  Li14  1  0.00000000  0.70118400  0.55635000  1
  Li  Li15  1  0.00000000  0.82844000  0.78368200  1
  Li  Li16  1  0.71235150  0.60022050  0.05991300  1
  Li  Li17  1  0.50000000  0.79881600  0.05635000  1
  Li  Li18  1  0.50000000  0.67156000  0.28368200  1
  Li  Li19  1  0.28764850  0.60022050  0.05991300  1
  Cr  Cr20  1  0.74784150  0.41993350  0.28588700  1
  Cr  Cr21  1  0.25215850  0.41993350  0.28588700  1
  Cr  Cr22  1  0.50000000  0.17254100  0.28569900  1
  Cr  Cr23  1  0.00000000  0.32745900  0.78569900  1
  Cr  Cr24  1  0.24784150  0.08006650  0.78588700  1
  Cr  Cr25  1  0.75215850  0.08006650  0.78588700  1
  Cr  Cr26  1  0.24784150  0.91993350  0.28588700  1
  Cr  Cr27  1  0.75215850  0.91993350  0.28588700  1
  Cr  Cr28  1  0.00000000  0.67254100  0.28569900  1
  Cr  Cr29  1  0.50000000  0.82745900  0.78569900  1
  Cr  Cr30  1  0.74784150  0.58006650  0.78588700  1
  Cr  Cr31  1  0.25215850  0.58006650  0.78588700  1
  Ni  Ni32  1  0.50000000  0.33498700  0.02979500  1
  Ni  Ni33  1  0.00000000  0.16501300  0.52979500  1
  Ni  Ni34  1  0.00000000  0.83498700  0.02979500  1
  Ni  Ni35  1  0.50000000  0.66501300  0.52979500  1
  O  O36  1  0.50000000  0.00493700  0.17582200  1
  O  O37  1  0.00000000  0.49506300  0.67582200  1
  O  O38  1  0.75729000  0.41500700  0.90235700  1
  O  O39  1  0.50000000  0.49459900  0.16705700  1
  O  O40  1  0.24271000  0.41500700  0.90235700  1
  O  O41  1  0.50000000  0.33679300  0.40078800  1
  O  O42  1  0.73800250  0.25820150  0.16806900  1
  O  O43  1  0.26199750  0.25820150  0.16806900  1
  O  O44  1  0.00000000  0.34311000  0.40475700  1
  O  O45  1  0.50000000  0.15689000  0.90475700  1
  O  O46  1  0.23800250  0.24179850  0.66806900  1
  O  O47  1  0.25729000  0.08499300  0.40235700  1
  O  O48  1  0.76199750  0.24179850  0.66806900  1
  O  O49  1  0.00000000  0.16320700  0.90078800  1
  O  O50  1  0.00000000  0.00540100  0.66705700  1
  O  O51  1  0.74271000  0.08499300  0.40235700  1
  O  O52  1  0.00000000  0.50493700  0.17582200  1
  O  O53  1  0.50000000  0.99506300  0.67582200  1
  O  O54  1  0.25729000  0.91500700  0.90235700  1
  O  O55  1  0.00000000  0.99459900  0.16705700  1
  O  O56  1  0.74271000  0.91500700  0.90235700  1
  O  O57  1  0.00000000  0.83679300  0.40078800  1
  O  O58  1  0.23800250  0.75820150  0.16806900  1
  O  O59  1  0.76199750  0.75820150  0.16806900  1
  O  O60  1  0.50000000  0.84311000  0.40475700  1
  O  O61  1  0.00000000  0.65689000  0.90475700  1
  O  O62  1  0.73800250  0.74179850  0.66806900  1
  O  O63  1  0.75729000  0.58499300  0.40235700  1
  O  O64  1  0.26199750  0.74179850  0.66806900  1
  O  O65  1  0.50000000  0.66320700  0.90078800  1
  O  O66  1  0.50000000  0.50540100  0.66705700  1
  O  O67  1  0.24271000  0.58499300  0.40235700  1
