# generated using pymatgen
data_LiFe4(PO4)3
_symmetry_space_group_name_H-M   'P 1'
_cell_length_a   15.68405600
_cell_length_b   8.97555400
_cell_length_c   10.34205363
_cell_angle_alpha   90.00000000
_cell_angle_beta   119.60068637
_cell_angle_gamma   90.00000000
_symmetry_Int_Tables_number   1
_chemical_formula_structural   LiFe4(PO4)3
_chemical_formula_sum   'Li4 Fe16 P12 O48'
_cell_volume   1265.87415284
_cell_formula_units_Z   4
loop_
 _symmetry_equiv_pos_site_id
 _symmetry_equiv_pos_as_xyz
  1  'x, y, z'
loop_
 _atom_site_type_symbol
 _atom_site_label
 _atom_site_symmetry_multiplicity
 _atom_site_fract_x
 _atom_site_fract_y
 _atom_site_fract_z
 _atom_site_occupancy
  Li  Li0  1  0.25820300  0.74877800  0.03279300  1
  Li  Li1  1  0.25820300  0.25122200  0.53279300  1
  Li  Li2  1  0.75820300  0.24877800  0.03279300  1
  Li  Li3  1  0.75820300  0.75122200  0.53279300  1
  Fe  Fe4  1  0.08956900  0.94412300  0.99308400  1
  Fe  Fe5  1  0.22964450  0.41805750  0.99207400  1
  Fe  Fe6  1  0.40373500  0.75296500  0.45896600  1
  Fe  Fe7  1  0.42034600  0.11439500  0.49032500  1
  Fe  Fe8  1  0.42034600  0.88560500  0.99032500  1
  Fe  Fe9  1  0.08956900  0.05587700  0.49308400  1
  Fe  Fe10  1  0.22964450  0.58194250  0.49207400  1
  Fe  Fe11  1  0.40373500  0.24703500  0.95896600  1
  Fe  Fe12  1  0.58956900  0.44412300  0.99308400  1
  Fe  Fe13  1  0.72964450  0.91805750  0.99207400  1
  Fe  Fe14  1  0.90373500  0.25296500  0.45896600  1
  Fe  Fe15  1  0.92034600  0.61439500  0.49032500  1
  Fe  Fe16  1  0.92034600  0.38560500  0.99032500  1
  Fe  Fe17  1  0.58956900  0.55587700  0.49308400  1
  Fe  Fe18  1  0.72964450  0.08194250  0.49207400  1
  Fe  Fe19  1  0.90373500  0.74703500  0.95896600  1
  P  P20  1  0.03962200  0.60321800  0.86022300  1
  P  P21  1  0.21358950  0.93170550  0.36044300  1
  P  P22  1  0.35710950  0.42607050  0.35777200  1
  P  P23  1  0.21358950  0.06829450  0.86044300  1
  P  P24  1  0.35710950  0.57392950  0.85777200  1
  P  P25  1  0.03962200  0.39678200  0.36022300  1
  P  P26  1  0.53962200  0.10321800  0.86022300  1
  P  P27  1  0.71358950  0.43170550  0.36044300  1
  P  P28  1  0.85710950  0.92607050  0.35777200  1
  P  P29  1  0.71358950  0.56829450  0.86044300  1
  P  P30  1  0.85710950  0.07392950  0.85777200  1
  P  P31  1  0.53962200  0.89678200  0.36022300  1
  O  O32  1  0.11659650  0.07167250  0.86273500  1
  O  O33  1  0.08893050  0.45566050  0.86006900  1
  O  O34  1  0.27564550  0.78484650  0.44356100  1
  O  O35  1  0.19573750  0.92656250  0.20062000  1
  O  O36  1  0.11569450  0.72637050  0.94816500  1
  O  O37  1  0.40545350  0.72143650  0.85378600  1
  O  O38  1  0.27862950  0.06600650  0.44821800  1
  O  O39  1  0.46630700  0.15377400  0.70167600  1
  O  O40  1  0.40545350  0.27856350  0.35378600  1
  O  O41  1  0.47809050  0.07877250  0.94554700  1
  O  O42  1  0.44181550  0.54866550  0.44390700  1
  O  O43  1  0.11659650  0.92832750  0.36273500  1
  O  O44  1  0.27862950  0.93399350  0.94821800  1
  O  O45  1  0.19573750  0.07343750  0.70062000  1
  O  O46  1  0.29026150  0.48654550  0.20037100  1
  O  O47  1  0.30217700  0.41126500  0.44703900  1
  O  O48  1  0.44181550  0.45133450  0.94390700  1
  O  O49  1  0.27564550  0.21515350  0.94356100  1
  O  O50  1  0.11569450  0.27362950  0.44816500  1
  O  O51  1  0.29026150  0.51345450  0.70037100  1
  O  O52  1  0.46630700  0.84622600  0.20167600  1
  O  O53  1  0.08893050  0.54433950  0.36006900  1
  O  O54  1  0.30217700  0.58873500  0.94703900  1
  O  O55  1  0.47809050  0.92122750  0.44554700  1
  O  O56  1  0.61659650  0.57167250  0.86273500  1
  O  O57  1  0.58893050  0.95566050  0.86006900  1
  O  O58  1  0.77564550  0.28484650  0.44356100  1
  O  O59  1  0.69573750  0.42656250  0.20062000  1
  O  O60  1  0.61569450  0.22637050  0.94816500  1
  O  O61  1  0.90545350  0.22143650  0.85378600  1
  O  O62  1  0.77862950  0.56600650  0.44821800  1
  O  O63  1  0.96630700  0.65377400  0.70167600  1
  O  O64  1  0.90545350  0.77856350  0.35378600  1
  O  O65  1  0.97809050  0.57877250  0.94554700  1
  O  O66  1  0.94181550  0.04866550  0.44390700  1
  O  O67  1  0.61659650  0.42832750  0.36273500  1
  O  O68  1  0.77862950  0.43399350  0.94821800  1
  O  O69  1  0.69573750  0.57343750  0.70062000  1
  O  O70  1  0.79026150  0.98654550  0.20037100  1
  O  O71  1  0.80217700  0.91126500  0.44703900  1
  O  O72  1  0.94181550  0.95133450  0.94390700  1
  O  O73  1  0.77564550  0.71515350  0.94356100  1
  O  O74  1  0.61569450  0.77362950  0.44816500  1
  O  O75  1  0.79026150  0.01345450  0.70037100  1
  O  O76  1  0.96630700  0.34622600  0.20167600  1
  O  O77  1  0.58893050  0.04433950  0.36006900  1
  O  O78  1  0.80217700  0.08873500  0.94703900  1
  O  O79  1  0.97809050  0.42122750  0.44554700  1
