# generated using pymatgen
data_Mn3OF5
_symmetry_space_group_name_H-M   'P 1'
_cell_length_a   9.47207800
_cell_length_b   7.02914600
_cell_length_c   7.35380962
_cell_angle_alpha   90.00000000
_cell_angle_beta   109.91171355
_cell_angle_gamma   90.00000000
_symmetry_Int_Tables_number   1
_chemical_formula_structural   Mn3OF5
_chemical_formula_sum   'Mn12 O4 F20'
_cell_volume   460.35091820
_cell_formula_units_Z   4
loop_
 _symmetry_equiv_pos_site_id
 _symmetry_equiv_pos_as_xyz
  1  'x, y, z'
loop_
 _atom_site_type_symbol
 _atom_site_label
 _atom_site_symmetry_multiplicity
 _atom_site_fract_x
 _atom_site_fract_y
 _atom_site_fract_z
 _atom_site_occupancy
  Mn  Mn0  1  0.16295900  0.50000000  0.16679400  1
  Mn  Mn1  1  0.00000000  0.00000000  0.00000000  1
  Mn  Mn2  1  0.18787500  0.50000000  0.65277600  1
  Mn  Mn3  1  0.00000000  0.00000000  0.50000000  1
  Mn  Mn4  1  0.83704100  0.50000000  0.83320600  1
  Mn  Mn5  1  0.81212500  0.50000000  0.34722400  1
  Mn  Mn6  1  0.66295900  0.00000000  0.16679400  1
  Mn  Mn7  1  0.50000000  0.50000000  0.00000000  1
  Mn  Mn8  1  0.68787500  0.00000000  0.65277600  1
  Mn  Mn9  1  0.50000000  0.50000000  0.50000000  1
  Mn  Mn10  1  0.33704100  0.00000000  0.83320600  1
  Mn  Mn11  1  0.31212500  0.00000000  0.34722400  1
  O  O12  1  0.58162100  0.50000000  0.28596300  1
  O  O13  1  0.41837900  0.50000000  0.71403700  1
  O  O14  1  0.08162100  0.00000000  0.28596300  1
  O  O15  1  0.91837900  0.00000000  0.71403700  1
  F  F16  1  0.00000000  0.70245500  0.00000000  1
  F  F17  1  0.17060550  0.19168550  0.65224000  1
  F  F18  1  0.95383300  0.50000000  0.64157800  1
  F  F19  1  0.27175200  0.50000000  0.96357100  1
  F  F20  1  0.72824800  0.50000000  0.03642900  1
  F  F21  1  0.04616700  0.50000000  0.35842200  1
  F  F22  1  0.17060550  0.80831450  0.65224000  1
  F  F23  1  0.00000000  0.29754500  0.00000000  1
  F  F24  1  0.82939450  0.80831450  0.34776000  1
  F  F25  1  0.82939450  0.19168550  0.34776000  1
  F  F26  1  0.50000000  0.20245500  0.00000000  1
  F  F27  1  0.67060550  0.69168550  0.65224000  1
  F  F28  1  0.45383300  0.00000000  0.64157800  1
  F  F29  1  0.77175200  0.00000000  0.96357100  1
  F  F30  1  0.22824800  0.00000000  0.03642900  1
  F  F31  1  0.54616700  0.00000000  0.35842200  1
  F  F32  1  0.67060550  0.30831450  0.65224000  1
  F  F33  1  0.50000000  0.79754500  0.00000000  1
  F  F34  1  0.32939450  0.30831450  0.34776000  1
  F  F35  1  0.32939450  0.69168550  0.34776000  1
