# generated using pymatgen
data_Fe6O7F5
_symmetry_space_group_name_H-M   'P 1'
_cell_length_a   9.30447600
_cell_length_b   6.48981200
_cell_length_c   7.67712381
_cell_angle_alpha   90.00000000
_cell_angle_beta   116.10861449
_cell_angle_gamma   90.00000000
_symmetry_Int_Tables_number   1
_chemical_formula_structural   Fe6O7F5
_chemical_formula_sum   'Fe12 O14 F10'
_cell_volume   416.27493234
_cell_formula_units_Z   2
loop_
 _symmetry_equiv_pos_site_id
 _symmetry_equiv_pos_as_xyz
  1  'x, y, z'
loop_
 _atom_site_type_symbol
 _atom_site_label
 _atom_site_symmetry_multiplicity
 _atom_site_fract_x
 _atom_site_fract_y
 _atom_site_fract_z
 _atom_site_occupancy
  Fe  Fe0  1  0.18999100  0.49086300  0.14600000  1
  Fe  Fe1  1  0.83734150  0.49420350  0.32353600  1
  Fe  Fe2  1  0.16265850  0.49420350  0.67646400  1
  Fe  Fe3  1  0.81000900  0.49086300  0.85400000  1
  Fe  Fe4  1  0.00000000  0.99723300  0.50000000  1
  Fe  Fe5  1  0.00000000  0.02778800  0.00000000  1
  Fe  Fe6  1  0.68999100  0.99086300  0.14600000  1
  Fe  Fe7  1  0.33734150  0.99420350  0.32353600  1
  Fe  Fe8  1  0.66265850  0.99420350  0.67646400  1
  Fe  Fe9  1  0.31000900  0.99086300  0.85400000  1
  Fe  Fe10  1  0.50000000  0.49723300  0.50000000  1
  Fe  Fe11  1  0.50000000  0.52778800  0.00000000  1
  O  O12  1  0.84372200  0.18959300  0.33709500  1
  O  O13  1  0.15627800  0.18959300  0.66290500  1
  O  O14  1  0.72536750  0.50309050  0.04511800  1
  O  O15  1  0.27463250  0.50309050  0.95488200  1
  O  O16  1  0.15400050  0.80180450  0.65996200  1
  O  O17  1  0.84599950  0.80180450  0.34003800  1
  O  O18  1  0.00000000  0.32282900  0.00000000  1
  O  O19  1  0.34372200  0.68959300  0.33709500  1
  O  O20  1  0.65627800  0.68959300  0.66290500  1
  O  O21  1  0.22536750  0.00309050  0.04511800  1
  O  O22  1  0.77463250  0.00309050  0.95488200  1
  O  O23  1  0.65400050  0.30180450  0.65996200  1
  O  O24  1  0.34599950  0.30180450  0.34003800  1
  O  O25  1  0.50000000  0.82282900  0.00000000  1
  F  F26  1  0.39386350  0.49781550  0.70264000  1
  F  F27  1  0.06959950  0.49622850  0.37846800  1
  F  F28  1  0.93040050  0.49622850  0.62153200  1
  F  F29  1  0.60613650  0.49781550  0.29736000  1
  F  F30  1  0.00000000  0.70495400  0.00000000  1
  F  F31  1  0.89386350  0.99781550  0.70264000  1
  F  F32  1  0.56959950  0.99622850  0.37846800  1
  F  F33  1  0.43040050  0.99622850  0.62153200  1
  F  F34  1  0.10613650  0.99781550  0.29736000  1
  F  F35  1  0.50000000  0.20495400  0.00000000  1
