# generated using pymatgen
data_LiFe2P5O16
_symmetry_space_group_name_H-M   'P 1'
_cell_length_a   7.55536600
_cell_length_b   9.44866300
_cell_length_c   10.35461576
_cell_angle_alpha   90.00000000
_cell_angle_beta   111.67845139
_cell_angle_gamma   90.00000000
_symmetry_Int_Tables_number   1
_chemical_formula_structural   LiFe2P5O16
_chemical_formula_sum   'Li2 Fe4 P10 O32'
_cell_volume   686.91421427
_cell_formula_units_Z   2
loop_
 _symmetry_equiv_pos_site_id
 _symmetry_equiv_pos_as_xyz
  1  'x, y, z'
loop_
 _atom_site_type_symbol
 _atom_site_label
 _atom_site_symmetry_multiplicity
 _atom_site_fract_x
 _atom_site_fract_y
 _atom_site_fract_z
 _atom_site_occupancy
  Li  Li0  1  0.00165300  0.20004000  0.75270400  1
  Li  Li1  1  0.00165300  0.79996000  0.25270400  1
  Fe  Fe2  1  0.62176900  0.85926800  0.46600700  1
  Fe  Fe3  1  0.06578200  0.63053600  0.85868800  1
  Fe  Fe4  1  0.06578200  0.36946400  0.35868800  1
  Fe  Fe5  1  0.62176900  0.14073200  0.96600700  1
  P  P6  1  0.38022900  0.13849600  0.36985800  1
  P  P7  1  0.42685700  0.70508000  0.12644700  1
  P  P8  1  0.71797600  0.12576100  0.30032400  1
  P  P9  1  0.87646200  0.58337800  0.52438500  1
  P  P10  1  0.87646200  0.41662200  0.02438500  1
  P  P11  1  0.38022900  0.86150400  0.86985800  1
  P  P12  1  0.48112100  0.45824000  0.98741700  1
  P  P13  1  0.42685700  0.29492000  0.62644700  1
  P  P14  1  0.48112100  0.54176000  0.48741700  1
  P  P15  1  0.71797600  0.87423900  0.80032400  1
  O  O16  1  0.21173200  0.70244400  0.06724400  1
  O  O17  1  0.50187600  0.18022600  0.27973200  1
  O  O18  1  0.70317500  0.93475300  0.65980200  1
  O  O19  1  0.52615600  0.76832100  0.26667300  1
  O  O20  1  0.66760600  0.50567600  0.45542200  1
  O  O21  1  0.51344300  0.54774100  0.12890300  1
  O  O22  1  0.47901800  0.30210000  0.01871700  1
  O  O23  1  0.50088500  0.78632700  0.01757500  1
  O  O24  1  0.98861500  0.46579800  0.93822900  1
  O  O25  1  0.76815100  0.01113200  0.41258600  1
  O  O26  1  0.84890300  0.74311500  0.50603500  1
  O  O27  1  0.95357600  0.53527300  0.67538500  1
  O  O28  1  0.70317500  0.06524700  0.15980200  1
  O  O29  1  0.84296400  0.25562900  0.34786700  1
  O  O30  1  0.98861500  0.53420200  0.43822900  1
  O  O31  1  0.18437500  0.79969900  0.80288900  1
  O  O32  1  0.84890300  0.25688500  0.00603500  1
  O  O33  1  0.31170700  0.51956300  0.87318500  1
  O  O34  1  0.95357600  0.46472700  0.17538500  1
  O  O35  1  0.21173200  0.29755600  0.56724400  1
  O  O36  1  0.38162200  0.02049600  0.89336600  1
  O  O37  1  0.18437500  0.20030100  0.30288900  1
  O  O38  1  0.50187600  0.81977400  0.77973200  1
  O  O39  1  0.31170700  0.48043700  0.37318500  1
  O  O40  1  0.52615600  0.23167900  0.76667300  1
  O  O41  1  0.66760600  0.49432400  0.95542200  1
  O  O42  1  0.38162200  0.97950400  0.39336600  1
  O  O43  1  0.51344300  0.45225900  0.62890300  1
  O  O44  1  0.47901800  0.69790000  0.51871700  1
  O  O45  1  0.50088500  0.21367300  0.51757500  1
  O  O46  1  0.76815100  0.98886800  0.91258600  1
  O  O47  1  0.84296400  0.74437100  0.84786700  1
