# generated using pymatgen
data_BeClO
_symmetry_space_group_name_H-M   'P 1'
_cell_length_a   2.70768217
_cell_length_b   2.70768217
_cell_length_c   40.14127253
_cell_angle_alpha   90.00000000
_cell_angle_beta   90.00000000
_cell_angle_gamma   120.00000000
_symmetry_Int_Tables_number   1
_chemical_formula_structural   BeClO
_chemical_formula_sum   'Be6 Cl6 O6'
_cell_volume   254.86907287
_cell_formula_units_Z   6
loop_
 _symmetry_equiv_pos_site_id
 _symmetry_equiv_pos_as_xyz
  1  'x, y, z'
loop_
 _atom_site_type_symbol
 _atom_site_label
 _atom_site_symmetry_multiplicity
 _atom_site_fract_x
 _atom_site_fract_y
 _atom_site_fract_z
 _atom_site_occupancy
  Be  Be0  1  0.66666667  0.33333333  0.19899033  1
  Be  Be1  1  0.00000000  0.00000000  0.13434300  1
  Be  Be2  1  0.33333333  0.66666667  0.53232367  1
  Be  Be3  1  0.66666667  0.33333333  0.46767633  1
  Be  Be4  1  0.00000000  0.00000000  0.86565700  1
  Be  Be5  1  0.33333333  0.66666667  0.80100967  1
  Cl  Cl6  1  0.33333333  0.66666667  0.28752667  1
  Cl  Cl7  1  0.33333333  0.66666667  0.04580667  1
  Cl  Cl8  1  0.00000000  0.00000000  0.62086000  1
  Cl  Cl9  1  0.00000000  0.00000000  0.37914000  1
  Cl  Cl10  1  0.66666667  0.33333333  0.95419333  1
  Cl  Cl11  1  0.66666667  0.33333333  0.71247333  1
  O  O12  1  0.66666667  0.33333333  0.13364033  1
  O  O13  1  0.00000000  0.00000000  0.19969300  1
  O  O14  1  0.33333333  0.66666667  0.46697367  1
  O  O15  1  0.66666667  0.33333333  0.53302633  1
  O  O16  1  0.00000000  0.00000000  0.80030700  1
  O  O17  1  0.33333333  0.66666667  0.86635967  1
