# generated using pymatgen
data_Li3MnBAsO7
_symmetry_space_group_name_H-M   'P 1'
_cell_length_a   5.08608343
_cell_length_b   6.84227900
_cell_length_c   8.48610559
_cell_angle_alpha   90.00000000
_cell_angle_beta   95.52372424
_cell_angle_gamma   90.00000000
_symmetry_Int_Tables_number   1
_chemical_formula_structural   Li3MnBAsO7
_chemical_formula_sum   'Li6 Mn2 B2 As2 O14'
_cell_volume   293.94854519
_cell_formula_units_Z   2
loop_
 _symmetry_equiv_pos_site_id
 _symmetry_equiv_pos_as_xyz
  1  'x, y, z'
loop_
 _atom_site_type_symbol
 _atom_site_label
 _atom_site_symmetry_multiplicity
 _atom_site_fract_x
 _atom_site_fract_y
 _atom_site_fract_z
 _atom_site_occupancy
  Li  Li0  1  0.27087475  0.75000000  0.40337625  1
  Li  Li1  1  0.72912525  0.25000000  0.59662375  1
  Li  Li2  1  0.74932225  0.99886550  0.26743125  1
  Li  Li3  1  0.74932225  0.50113450  0.26743125  1
  Li  Li4  1  0.25067775  0.49886550  0.73256875  1
  Li  Li5  1  0.25067775  0.00113450  0.73256875  1
  Mn  Mn6  1  0.28510925  0.25000000  0.18517575  1
  Mn  Mn7  1  0.71489075  0.75000000  0.81482425  1
  B  B8  1  0.19953175  0.25000000  0.46126225  1
  B  B9  1  0.80046825  0.75000000  0.53873775  1
  As  As10  1  0.24380125  0.75000000  0.08301075  1
  As  As11  1  0.75619875  0.25000000  0.91698925  1
  O  O12  1  0.87182875  0.75000000  0.38958375  1
  O  O13  1  0.12817125  0.25000000  0.61041625  1
  O  O14  1  0.45616825  0.25000000  0.41518775  1
  O  O15  1  0.54383175  0.75000000  0.58481225  1
  O  O16  1  0.00971175  0.25000000  0.32747375  1
  O  O17  1  0.99028825  0.75000000  0.67252625  1
  O  O18  1  0.90573925  0.75000000  0.03466925  1
  O  O19  1  0.09426075  0.25000000  0.96533075  1
  O  O20  1  0.62947875  0.25000000  0.09778075  1
  O  O21  1  0.37052125  0.75000000  0.90221925  1
  O  O22  1  0.33950875  0.94022500  0.20704875  1
  O  O23  1  0.33950875  0.55977500  0.20704875  1
  O  O24  1  0.66049125  0.44022500  0.79295125  1
  O  O25  1  0.66049125  0.05977500  0.79295125  1
