# generated using pymatgen
data_Cu2H3NO6
_symmetry_space_group_name_H-M   'P 1'
_cell_length_a   5.66523400
_cell_length_b   6.12857000
_cell_length_c   13.79208301
_cell_angle_alpha   90.00000000
_cell_angle_beta   90.00000000
_cell_angle_gamma   90.00000000
_symmetry_Int_Tables_number   1
_chemical_formula_structural   Cu2H3NO6
_chemical_formula_sum   'Cu8 H12 N4 O24'
_cell_volume   478.85813130
_cell_formula_units_Z   4
loop_
 _symmetry_equiv_pos_site_id
 _symmetry_equiv_pos_as_xyz
  1  'x, y, z'
loop_
 _atom_site_type_symbol
 _atom_site_label
 _atom_site_symmetry_multiplicity
 _atom_site_fract_x
 _atom_site_fract_y
 _atom_site_fract_z
 _atom_site_occupancy
  Cu  Cu0  1  0.50858650  0.51372150  0.24850750  1
  Cu  Cu1  1  0.49873550  0.72813850  0.75248950  1
  Cu  Cu2  1  0.99873550  0.77186150  0.24751050  1
  Cu  Cu3  1  0.00858650  0.98627850  0.75149250  1
  Cu  Cu4  1  0.49141350  0.01372150  0.25149250  1
  Cu  Cu5  1  0.50126450  0.22813850  0.74751050  1
  Cu  Cu6  1  0.00126450  0.27186150  0.25248950  1
  Cu  Cu7  1  0.99141350  0.48627850  0.74850750  1
  H  H8  1  0.95054750  0.50891850  0.11021450  1
  H  H9  1  0.67877050  0.77781250  0.38207850  1
  H  H10  1  0.83199650  0.75177150  0.88117550  1
  H  H11  1  0.33199650  0.74822850  0.11882450  1
  H  H12  1  0.17877050  0.72218750  0.61792150  1
  H  H13  1  0.45054750  0.99108150  0.88978550  1
  H  H14  1  0.04945250  0.00891850  0.38978550  1
  H  H15  1  0.32122950  0.27781250  0.11792150  1
  H  H16  1  0.16800350  0.25177150  0.61882450  1
  H  H17  1  0.66800350  0.24822850  0.38117550  1
  H  H18  1  0.82122950  0.22218750  0.88207850  1
  H  H19  1  0.54945250  0.49108150  0.61021450  1
  N  N20  1  0.20239650  0.49619350  0.45449550  1
  N  N21  1  0.70239650  0.00380650  0.54550450  1
  N  N22  1  0.79760350  0.99619350  0.04550450  1
  N  N23  1  0.29760350  0.50380650  0.95449550  1
  O  O24  1  0.18693850  0.51733150  0.36223550  1
  O  O25  1  0.88863050  0.51784150  0.17674150  1
  O  O26  1  0.35928850  0.60393450  0.49900850  1
  O  O27  1  0.43812050  0.62897850  0.99784050  1
  O  O28  1  0.17680350  0.73160150  0.68922550  1
  O  O29  1  0.82527450  0.74064350  0.80971550  1
  O  O30  1  0.32527450  0.75935650  0.19028450  1
  O  O31  1  0.67680350  0.76839850  0.31077450  1
  O  O32  1  0.93812050  0.87102150  0.00215950  1
  O  O33  1  0.85928850  0.89606550  0.50099150  1
  O  O34  1  0.38863050  0.98215850  0.82325850  1
  O  O35  1  0.68693850  0.98266850  0.63776450  1
  O  O36  1  0.81306150  0.01733150  0.13776450  1
  O  O37  1  0.11136950  0.01784150  0.32325850  1
  O  O38  1  0.64071150  0.10393450  0.00099150  1
  O  O39  1  0.56187950  0.12897850  0.50215950  1
  O  O40  1  0.82319650  0.23160150  0.81077450  1
  O  O41  1  0.17472550  0.24064350  0.69028450  1
  O  O42  1  0.67472550  0.25935650  0.30971550  1
  O  O43  1  0.32319650  0.26839850  0.18922550  1
  O  O44  1  0.06187950  0.37102150  0.49784050  1
  O  O45  1  0.14071150  0.39606550  0.99900850  1
  O  O46  1  0.61136950  0.48215850  0.67674150  1
  O  O47  1  0.31306150  0.48266850  0.86223550  1
