# generated using pymatgen
data_Li8Fe7O15
_symmetry_space_group_name_H-M   'P 1'
_cell_length_a   15.36059800
_cell_length_b   4.04923800
_cell_length_c   9.01141482
_cell_angle_alpha   90.00000000
_cell_angle_beta   101.50379470
_cell_angle_gamma   90.00000000
_symmetry_Int_Tables_number   1
_chemical_formula_structural   Li8Fe7O15
_chemical_formula_sum   'Li16 Fe14 O30'
_cell_volume   549.23886751
_cell_formula_units_Z   2
loop_
 _symmetry_equiv_pos_site_id
 _symmetry_equiv_pos_as_xyz
  1  'x, y, z'
loop_
 _atom_site_type_symbol
 _atom_site_label
 _atom_site_symmetry_multiplicity
 _atom_site_fract_x
 _atom_site_fract_y
 _atom_site_fract_z
 _atom_site_occupancy
  Li  Li0  1  0.90131000  0.50000000  0.13728400  1
  Li  Li1  1  0.59335600  0.00000000  0.19927200  1
  Li  Li2  1  0.90664400  0.50000000  0.80072800  1
  Li  Li3  1  0.90176000  0.50000000  0.46480600  1
  Li  Li4  1  0.59824000  0.00000000  0.53519400  1
  Li  Li5  1  0.79983300  0.00000000  0.26694700  1
  Li  Li6  1  0.59869000  0.00000000  0.86271600  1
  Li  Li7  1  0.70016700  0.50000000  0.73305300  1
  Li  Li8  1  0.40131000  0.00000000  0.13728400  1
  Li  Li9  1  0.09335600  0.50000000  0.19927200  1
  Li  Li10  1  0.40664400  0.00000000  0.80072800  1
  Li  Li11  1  0.40176000  0.00000000  0.46480600  1
  Li  Li12  1  0.09824000  0.50000000  0.53519400  1
  Li  Li13  1  0.29983300  0.50000000  0.26694700  1
  Li  Li14  1  0.09869000  0.50000000  0.86271600  1
  Li  Li15  1  0.20016700  0.00000000  0.73305300  1
  Fe  Fe16  1  0.80099400  0.00000000  0.60182800  1
  Fe  Fe17  1  0.80010300  0.00000000  0.93178700  1
  Fe  Fe18  1  0.99393800  0.00000000  0.33395900  1
  Fe  Fe19  1  0.50606200  0.50000000  0.66604100  1
  Fe  Fe20  1  0.69900600  0.50000000  0.39817200  1
  Fe  Fe21  1  0.00000000  0.00000000  0.00000000  1
  Fe  Fe22  1  0.69989700  0.50000000  0.06821300  1
  Fe  Fe23  1  0.30099400  0.50000000  0.60182800  1
  Fe  Fe24  1  0.30010300  0.50000000  0.93178700  1
  Fe  Fe25  1  0.49393800  0.50000000  0.33395900  1
  Fe  Fe26  1  0.00606200  0.00000000  0.66604100  1
  Fe  Fe27  1  0.19900600  0.00000000  0.39817200  1
  Fe  Fe28  1  0.50000000  0.50000000  0.00000000  1
  Fe  Fe29  1  0.19989700  0.00000000  0.06821300  1
  O  O30  1  0.99632700  0.50000000  0.33101200  1
  O  O31  1  0.50367300  0.00000000  0.66898800  1
  O  O32  1  0.00000000  0.50000000  0.00000000  1
  O  O33  1  0.71508800  0.00000000  0.73836100  1
  O  O34  1  0.70431000  0.00000000  0.05654500  1
  O  O35  1  0.70400700  0.00000000  0.41300100  1
  O  O36  1  0.90501100  0.00000000  0.12744800  1
  O  O37  1  0.90641600  0.00000000  0.47805700  1
  O  O38  1  0.90225400  0.00000000  0.79975600  1
  O  O39  1  0.59358400  0.50000000  0.52194300  1
  O  O40  1  0.78491200  0.50000000  0.26163900  1
  O  O41  1  0.59774600  0.50000000  0.20024400  1
  O  O42  1  0.59498900  0.50000000  0.87255200  1
  O  O43  1  0.79599300  0.50000000  0.58699900  1
  O  O44  1  0.79569000  0.50000000  0.94345500  1
  O  O45  1  0.49632700  0.00000000  0.33101200  1
  O  O46  1  0.00367300  0.50000000  0.66898800  1
  O  O47  1  0.50000000  0.00000000  0.00000000  1
  O  O48  1  0.21508800  0.50000000  0.73836100  1
  O  O49  1  0.20431000  0.50000000  0.05654500  1
  O  O50  1  0.20400700  0.50000000  0.41300100  1
  O  O51  1  0.40501100  0.50000000  0.12744800  1
  O  O52  1  0.40641600  0.50000000  0.47805700  1
  O  O53  1  0.40225400  0.50000000  0.79975600  1
  O  O54  1  0.09358400  0.00000000  0.52194300  1
  O  O55  1  0.28491200  0.00000000  0.26163900  1
  O  O56  1  0.09774600  0.00000000  0.20024400  1
  O  O57  1  0.09498900  0.00000000  0.87255200  1
  O  O58  1  0.29599300  0.00000000  0.58699900  1
  O  O59  1  0.29569000  0.00000000  0.94345500  1
