# generated using pymatgen
data_Mn2Fe(PO4)3
_symmetry_space_group_name_H-M   'P 1'
_cell_length_a   8.68883182
_cell_length_b   8.68883182
_cell_length_c   20.41765907
_cell_angle_alpha   90.00000000
_cell_angle_beta   90.00000000
_cell_angle_gamma   120.00000000
_symmetry_Int_Tables_number   1
_chemical_formula_structural   Mn2Fe(PO4)3
_chemical_formula_sum   'Mn12 Fe6 P18 O72'
_cell_volume   1334.93266935
_cell_formula_units_Z   6
loop_
 _symmetry_equiv_pos_site_id
 _symmetry_equiv_pos_as_xyz
  1  'x, y, z'
loop_
 _atom_site_type_symbol
 _atom_site_label
 _atom_site_symmetry_multiplicity
 _atom_site_fract_x
 _atom_site_fract_y
 _atom_site_fract_z
 _atom_site_occupancy
  Mn  Mn0  1  0.33333333  0.66666667  0.52158467  1
  Mn  Mn1  1  0.33333333  0.66666667  0.31174867  1
  Mn  Mn2  1  0.33333333  0.66666667  0.02158467  1
  Mn  Mn3  1  0.33333333  0.66666667  0.81174867  1
  Mn  Mn4  1  0.00000000  0.00000000  0.85491800  1
  Mn  Mn5  1  1.00000000  0.00000000  0.64508200  1
  Mn  Mn6  1  0.00000000  0.00000000  0.35491800  1
  Mn  Mn7  1  0.00000000  0.00000000  0.14508200  1
  Mn  Mn8  1  0.66666667  0.33333333  0.18825133  1
  Mn  Mn9  1  0.66666667  0.33333333  0.97841533  1
  Mn  Mn10  1  0.66666667  0.33333333  0.68825133  1
  Mn  Mn11  1  0.66666667  0.33333333  0.47841533  1
  Fe  Fe12  1  0.00000000  0.00000000  0.00000000  1
  Fe  Fe13  1  0.33333333  0.66666667  0.16666667  1
  Fe  Fe14  1  0.66666667  0.33333333  0.33333333  1
  Fe  Fe15  1  0.00000000  0.00000000  0.50000000  1
  Fe  Fe16  1  0.33333333  0.66666667  0.66666667  1
  Fe  Fe17  1  0.66666667  0.33333333  0.83333333  1
  P  P18  1  0.70203100  0.70203100  0.25000000  1
  P  P19  1  0.29796900  0.00000000  0.25000000  1
  P  P20  1  0.00000000  0.29796900  0.25000000  1
  P  P21  1  0.66666667  0.03536433  0.08333333  1
  P  P22  1  0.36869767  0.33333333  0.08333333  1
  P  P23  1  0.96463567  0.63130233  0.08333333  1
  P  P24  1  0.36869767  0.03536433  0.58333333  1
  P  P25  1  0.96463567  0.33333333  0.58333333  1
  P  P26  1  0.66666667  0.63130233  0.58333333  1
  P  P27  1  0.33333333  0.36869767  0.41666667  1
  P  P28  1  0.03536433  0.66666667  0.41666667  1
  P  P29  1  0.63130233  0.96463567  0.41666667  1
  P  P30  1  0.03536433  0.36869767  0.91666667  1
  P  P31  1  0.63130233  0.66666667  0.91666667  1
  P  P32  1  0.33333333  0.96463567  0.91666667  1
  P  P33  1  0.00000000  0.70203100  0.75000000  1
  P  P34  1  0.70203100  0.00000000  0.75000000  1
  P  P35  1  0.29796900  0.29796900  0.75000000  1
  O  O36  1  0.54078667  0.86541533  0.35433433  1
  O  O37  1  0.32462867  0.45921333  0.35433433  1
  O  O38  1  0.67593667  0.51050633  0.26165333  1
  O  O39  1  0.13458467  0.67537133  0.35433433  1
  O  O40  1  0.80125133  0.79254667  0.18766767  1
  O  O41  1  0.51050633  0.67593667  0.23834667  1
  O  O42  1  0.48949367  0.16543033  0.26165333  1
  O  O43  1  0.32406333  0.83456967  0.23834667  1
  O  O44  1  0.67537133  0.13458467  0.14566567  1
  O  O45  1  0.16543033  0.48949367  0.23834667  1
  O  O46  1  0.83209700  0.00927000  0.07168000  1
  O  O47  1  0.45921333  0.32462867  0.14566567  1
  O  O48  1  0.20745333  0.00870467  0.18766767  1
  O  O49  1  0.83456967  0.32406333  0.26165333  1
  O  O50  1  0.50123633  0.84383967  0.09498667  1
  O  O51  1  0.99129533  0.19874867  0.18766767  1
  O  O52  1  0.34260333  0.49876367  0.09498667  1
  O  O53  1  0.17717300  0.16790300  0.07168000  1
  O  O54  1  0.15616033  0.65739667  0.09498667  1
  O  O55  1  0.86541533  0.54078667  0.14566567  1
  O  O56  1  0.53208200  0.65796200  0.97899900  1
  O  O57  1  0.99073000  0.82282700  0.07168000  1
  O  O58  1  0.34203800  0.87412000  0.97899900  1
  O  O59  1  0.12588000  0.46791800  0.97899900  1
  O  O60  1  0.20745333  0.19874867  0.68766767  1
  O  O61  1  0.99129533  0.79254667  0.68766767  1
  O  O62  1  0.34260333  0.84383967  0.59498667  1
  O  O63  1  0.80125133  0.00870467  0.68766767  1
  O  O64  1  0.46791800  0.12588000  0.52100100  1
  O  O65  1  0.17717300  0.00927000  0.57168000  1
  O  O66  1  0.15616033  0.49876367  0.59498667  1
  O  O67  1  0.99073000  0.16790300  0.57168000  1
  O  O68  1  0.34203800  0.46791800  0.47899900  1
  O  O69  1  0.83209700  0.82282700  0.57168000  1
  O  O70  1  0.49876367  0.34260333  0.40501333  1
  O  O71  1  0.12588000  0.65796200  0.47899900  1
  O  O72  1  0.87412000  0.34203800  0.52100100  1
  O  O73  1  0.50123633  0.65739667  0.59498667  1
  O  O74  1  0.16790300  0.17717300  0.42832000  1
  O  O75  1  0.65796200  0.53208200  0.52100100  1
  O  O76  1  0.00927000  0.83209700  0.42832000  1
  O  O77  1  0.84383967  0.50123633  0.40501333  1
  O  O78  1  0.82282700  0.99073000  0.42832000  1
  O  O79  1  0.53208200  0.87412000  0.47899900  1
  O  O80  1  0.19874867  0.99129533  0.31233233  1
  O  O81  1  0.65739667  0.15616033  0.40501333  1
  O  O82  1  0.00870467  0.20745333  0.31233233  1
  O  O83  1  0.79254667  0.80125133  0.31233233  1
  O  O84  1  0.87412000  0.53208200  0.02100100  1
  O  O85  1  0.65796200  0.12588000  0.02100100  1
  O  O86  1  0.00927000  0.17717300  0.92832000  1
  O  O87  1  0.46791800  0.34203800  0.02100100  1
  O  O88  1  0.13458467  0.45921333  0.85433433  1
  O  O89  1  0.84383967  0.34260333  0.90501333  1
  O  O90  1  0.82282700  0.83209700  0.92832000  1
  O  O91  1  0.65739667  0.50123633  0.90501333  1
  O  O92  1  0.00870467  0.80125133  0.81233233  1
  O  O93  1  0.49876367  0.15616033  0.90501333  1
  O  O94  1  0.16543033  0.67593667  0.73834667  1
  O  O95  1  0.79254667  0.99129533  0.81233233  1
  O  O96  1  0.54078667  0.67537133  0.85433433  1
  O  O97  1  0.16790300  0.99073000  0.92832000  1
  O  O98  1  0.83456967  0.51050633  0.76165333  1
  O  O99  1  0.32462867  0.86541533  0.85433433  1
  O  O100  1  0.67593667  0.16543033  0.76165333  1
  O  O101  1  0.51050633  0.83456967  0.73834667  1
  O  O102  1  0.48949367  0.32406333  0.76165333  1
  O  O103  1  0.19874867  0.20745333  0.81233233  1
  O  O104  1  0.86541533  0.32462867  0.64566567  1
  O  O105  1  0.32406333  0.48949367  0.73834667  1
  O  O106  1  0.67537133  0.54078667  0.64566567  1
  O  O107  1  0.45921333  0.13458467  0.64566567  1
