# generated using pymatgen
data_Li4Mn5Co3O16
_symmetry_space_group_name_H-M   'P 1'
_cell_length_a   9.94568200
_cell_length_b   5.72988800
_cell_length_c   9.40871078
_cell_angle_alpha   90.00000000
_cell_angle_beta   90.96620571
_cell_angle_gamma   90.00000000
_symmetry_Int_Tables_number   1
_chemical_formula_structural   Li4Mn5Co3O16
_chemical_formula_sum   'Li8 Mn10 Co6 O32'
_cell_volume   536.10402297
_cell_formula_units_Z   2
loop_
 _symmetry_equiv_pos_site_id
 _symmetry_equiv_pos_as_xyz
  1  'x, y, z'
loop_
 _atom_site_type_symbol
 _atom_site_label
 _atom_site_symmetry_multiplicity
 _atom_site_fract_x
 _atom_site_fract_y
 _atom_site_fract_z
 _atom_site_occupancy
  Li  Li0  1  0.83304200  0.50000000  0.90172900  1
  Li  Li1  1  0.99351100  0.00000000  0.99937900  1
  Li  Li2  1  0.99285000  0.00000000  0.49281600  1
  Li  Li3  1  0.66832200  0.00000000  0.39157300  1
  Li  Li4  1  0.33304200  0.00000000  0.90172900  1
  Li  Li5  1  0.49351100  0.50000000  0.99937900  1
  Li  Li6  1  0.49285000  0.50000000  0.49281600  1
  Li  Li7  1  0.16832200  0.50000000  0.39157300  1
  Mn  Mn8  1  0.83765500  0.50000000  0.48395900  1
  Mn  Mn9  1  0.67209700  0.50000000  0.21397100  1
  Mn  Mn10  1  0.66864600  0.00000000  0.99092400  1
  Mn  Mn11  1  0.58142450  0.75077450  0.71543600  1
  Mn  Mn12  1  0.58142450  0.24922550  0.71543600  1
  Mn  Mn13  1  0.33765500  0.00000000  0.48395900  1
  Mn  Mn14  1  0.17209700  0.00000000  0.21397100  1
  Mn  Mn15  1  0.16864600  0.50000000  0.99092400  1
  Mn  Mn16  1  0.08142450  0.25077450  0.71543600  1
  Mn  Mn17  1  0.08142450  0.74922550  0.71543600  1
  Co  Co18  1  0.91733050  0.25715850  0.21190100  1
  Co  Co19  1  0.91733050  0.74284150  0.21190100  1
  Co  Co20  1  0.82787800  0.00000000  0.71595300  1
  Co  Co21  1  0.41733050  0.75715850  0.21190100  1
  Co  Co22  1  0.41733050  0.24284150  0.21190100  1
  Co  Co23  1  0.32787800  0.50000000  0.71595300  1
  O  O24  1  0.91724950  0.24115950  0.60398800  1
  O  O25  1  0.98949200  0.50000000  0.32521100  1
  O  O26  1  0.83301200  0.50000000  0.10846000  1
  O  O27  1  0.50292700  0.50000000  0.30549100  1
  O  O28  1  0.99713600  0.00000000  0.81257000  1
  O  O29  1  0.91724950  0.75884050  0.60398800  1
  O  O30  1  0.76383900  0.27917200  0.33737200  1
  O  O31  1  0.76383900  0.72082800  0.33737200  1
  O  O32  1  0.83415100  0.00000000  0.09803300  1
  O  O33  1  0.65501200  0.50000000  0.60838400  1
  O  O34  1  0.73895950  0.77936850  0.84043600  1
  O  O35  1  0.73895950  0.22063150  0.84043600  1
  O  O36  1  0.66244700  0.00000000  0.60918300  1
  O  O37  1  0.58280500  0.74463600  0.09629900  1
  O  O38  1  0.51799100  0.00000000  0.84021500  1
  O  O39  1  0.58280500  0.25536400  0.09629900  1
  O  O40  1  0.41724950  0.74115950  0.60398800  1
  O  O41  1  0.48949200  0.00000000  0.32521100  1
  O  O42  1  0.33301200  0.00000000  0.10846000  1
  O  O43  1  0.00292700  0.00000000  0.30549100  1
  O  O44  1  0.49713600  0.50000000  0.81257000  1
  O  O45  1  0.41724950  0.25884050  0.60398800  1
  O  O46  1  0.26383900  0.77917200  0.33737200  1
  O  O47  1  0.26383900  0.22082800  0.33737200  1
  O  O48  1  0.33415100  0.50000000  0.09803300  1
  O  O49  1  0.15501200  0.00000000  0.60838400  1
  O  O50  1  0.23895950  0.27936850  0.84043600  1
  O  O51  1  0.23895950  0.72063150  0.84043600  1
  O  O52  1  0.16244700  0.50000000  0.60918300  1
  O  O53  1  0.08280500  0.24463600  0.09629900  1
  O  O54  1  0.01799100  0.50000000  0.84021500  1
  O  O55  1  0.08280500  0.75536400  0.09629900  1
