# generated using pymatgen
data_Li4FeO3
_symmetry_space_group_name_H-M   'P 1'
_cell_length_a   10.10927406
_cell_length_b   5.13436714
_cell_length_c   6.94423510
_cell_angle_alpha   90.00000000
_cell_angle_beta   110.87325083
_cell_angle_gamma   90.00000000
_symmetry_Int_Tables_number   1
_chemical_formula_structural   Li4FeO3
_chemical_formula_sum   'Li16 Fe4 O12'
_cell_volume   336.78335545
_cell_formula_units_Z   4
loop_
 _symmetry_equiv_pos_site_id
 _symmetry_equiv_pos_as_xyz
  1  'x, y, z'
loop_
 _atom_site_type_symbol
 _atom_site_label
 _atom_site_symmetry_multiplicity
 _atom_site_fract_x
 _atom_site_fract_y
 _atom_site_fract_z
 _atom_site_occupancy
  Li  Li0  1  0.61646700  0.65023000  0.93219200  1
  Li  Li1  1  0.61646700  0.34977000  0.43219200  1
  Li  Li2  1  0.72433800  0.84634900  0.64216550  1
  Li  Li3  1  0.72433800  0.15365100  0.14216550  1
  Li  Li4  1  0.79986225  0.28158875  0.83771550  1
  Li  Li5  1  0.79986225  0.71841125  0.33771550  1
  Li  Li6  1  0.86641975  0.15069825  0.52803450  1
  Li  Li7  1  0.86641975  0.84930175  0.02803450  1
  Li  Li8  1  0.11646700  0.15023000  0.93219200  1
  Li  Li9  1  0.11646700  0.84977000  0.43219200  1
  Li  Li10  1  0.22433800  0.34634900  0.64216550  1
  Li  Li11  1  0.22433800  0.65365100  0.14216550  1
  Li  Li12  1  0.29986225  0.78158875  0.83771550  1
  Li  Li13  1  0.29986225  0.21841125  0.33771550  1
  Li  Li14  1  0.36641975  0.65069825  0.52803450  1
  Li  Li15  1  0.36641975  0.34930175  0.02803450  1
  Fe  Fe16  1  0.98227175  0.64105925  0.75013550  1
  Fe  Fe17  1  0.98227175  0.35894075  0.25013550  1
  Fe  Fe18  1  0.48227175  0.14105925  0.75013550  1
  Fe  Fe19  1  0.48227175  0.85894075  0.25013550  1
  O  O20  1  0.66630000  0.99431200  0.86158800  1
  O  O21  1  0.66630000  0.00568800  0.36158800  1
  O  O22  1  0.79863100  0.49886100  0.59057600  1
  O  O23  1  0.79863100  0.50113900  0.09057600  1
  O  O24  1  0.93558200  0.98902800  0.80743800  1
  O  O25  1  0.93558200  0.01097200  0.30743800  1
  O  O26  1  0.16630000  0.49431200  0.86158800  1
  O  O27  1  0.16630000  0.50568800  0.36158800  1
  O  O28  1  0.29863100  0.99886100  0.59057600  1
  O  O29  1  0.29863100  0.00113900  0.09057600  1
  O  O30  1  0.43558200  0.48902800  0.80743800  1
  O  O31  1  0.43558200  0.51097200  0.30743800  1
