# generated using pymatgen
data_Mn3(O2F)2
_symmetry_space_group_name_H-M   'P 1'
_cell_length_a   6.53067400
_cell_length_b   19.55055400
_cell_length_c   3.08295400
_cell_angle_alpha   90.00000000
_cell_angle_beta   90.00000000
_cell_angle_gamma   90.00000000
_symmetry_Int_Tables_number   1
_chemical_formula_structural   Mn3(O2F)2
_chemical_formula_sum   'Mn12 O16 F8'
_cell_volume   393.62630934
_cell_formula_units_Z   4
loop_
 _symmetry_equiv_pos_site_id
 _symmetry_equiv_pos_as_xyz
  1  'x, y, z'
loop_
 _atom_site_type_symbol
 _atom_site_label
 _atom_site_symmetry_multiplicity
 _atom_site_fract_x
 _atom_site_fract_y
 _atom_site_fract_z
 _atom_site_occupancy
  Mn  Mn0  1  0.00000000  0.15995900  0.00000000  1
  Mn  Mn1  1  0.00000000  0.00000000  0.50000000  1
  Mn  Mn2  1  0.50000000  0.15927400  0.50000000  1
  Mn  Mn3  1  0.50000000  0.34004100  0.00000000  1
  Mn  Mn4  1  0.50000000  0.00000000  0.00000000  1
  Mn  Mn5  1  0.00000000  0.34072600  0.50000000  1
  Mn  Mn6  1  0.50000000  0.65995900  0.00000000  1
  Mn  Mn7  1  0.50000000  0.50000000  0.50000000  1
  Mn  Mn8  1  0.00000000  0.65927400  0.50000000  1
  Mn  Mn9  1  0.00000000  0.84004100  0.00000000  1
  Mn  Mn10  1  0.00000000  0.50000000  0.00000000  1
  Mn  Mn11  1  0.50000000  0.84072600  0.50000000  1
  O  O12  1  0.00000000  0.09905000  0.50000000  1
  O  O13  1  0.30797450  0.16596450  0.00000000  1
  O  O14  1  0.69202550  0.16596450  0.00000000  1
  O  O15  1  0.19202550  0.33403550  0.00000000  1
  O  O16  1  0.50000000  0.40095000  0.50000000  1
  O  O17  1  0.50000000  0.06324200  0.50000000  1
  O  O18  1  0.00000000  0.43675800  0.50000000  1
  O  O19  1  0.80797450  0.33403550  0.00000000  1
  O  O20  1  0.50000000  0.59905000  0.50000000  1
  O  O21  1  0.80797450  0.66596450  0.00000000  1
  O  O22  1  0.19202550  0.66596450  0.00000000  1
  O  O23  1  0.69202550  0.83403550  0.00000000  1
  O  O24  1  0.00000000  0.90095000  0.50000000  1
  O  O25  1  0.00000000  0.56324200  0.50000000  1
  O  O26  1  0.50000000  0.93675800  0.50000000  1
  O  O27  1  0.30797450  0.83403550  0.00000000  1
  F  F28  1  0.19285800  0.00000000  0.00000000  1
  F  F29  1  0.50000000  0.26730700  0.50000000  1
  F  F30  1  0.80714200  0.00000000  0.00000000  1
  F  F31  1  0.00000000  0.23269300  0.50000000  1
  F  F32  1  0.69285800  0.50000000  0.00000000  1
  F  F33  1  0.00000000  0.76730700  0.50000000  1
  F  F34  1  0.30714200  0.50000000  0.00000000  1
  F  F35  1  0.50000000  0.73269300  0.50000000  1
