# generated using pymatgen
data_Fe6O7F5
_symmetry_space_group_name_H-M   'P 1'
_cell_length_a   6.39147200
_cell_length_b   7.06150400
_cell_length_c   9.10017900
_cell_angle_alpha   90.00000000
_cell_angle_beta   90.00000000
_cell_angle_gamma   90.00000000
_symmetry_Int_Tables_number   1
_chemical_formula_structural   Fe6O7F5
_chemical_formula_sum   'Fe12 O14 F10'
_cell_volume   410.72206523
_cell_formula_units_Z   2
loop_
 _symmetry_equiv_pos_site_id
 _symmetry_equiv_pos_as_xyz
  1  'x, y, z'
loop_
 _atom_site_type_symbol
 _atom_site_label
 _atom_site_symmetry_multiplicity
 _atom_site_fract_x
 _atom_site_fract_y
 _atom_site_fract_z
 _atom_site_occupancy
  Fe  Fe0  1  0.50000000  0.48942500  0.34104500  1
  Fe  Fe1  1  0.50000000  0.48942500  0.65895500  1
  Fe  Fe2  1  0.50000000  0.50079000  0.00000000  1
  Fe  Fe3  1  0.50000000  0.03117900  0.50000000  1
  Fe  Fe4  1  0.50000000  0.99600100  0.16785900  1
  Fe  Fe5  1  0.50000000  0.99600100  0.83214100  1
  Fe  Fe6  1  0.00000000  0.98942500  0.34104500  1
  Fe  Fe7  1  0.00000000  0.98942500  0.65895500  1
  Fe  Fe8  1  0.00000000  0.00079000  0.00000000  1
  Fe  Fe9  1  0.00000000  0.53117900  0.50000000  1
  Fe  Fe10  1  0.00000000  0.49600100  0.16785900  1
  Fe  Fe11  1  0.00000000  0.49600100  0.83214100  1
  O  O12  1  0.50000000  0.31119400  0.50000000  1
  O  O13  1  0.30386100  0.00231500  0.32796700  1
  O  O14  1  0.30386100  0.00231500  0.67203300  1
  O  O15  1  0.30380750  0.99660050  0.00000000  1
  O  O16  1  0.69613900  0.00231500  0.32796700  1
  O  O17  1  0.69613900  0.00231500  0.67203300  1
  O  O18  1  0.69619250  0.99660050  0.00000000  1
  O  O19  1  0.00000000  0.81119400  0.50000000  1
  O  O20  1  0.80386100  0.50231500  0.32796700  1
  O  O21  1  0.80386100  0.50231500  0.67203300  1
  O  O22  1  0.80380750  0.49660050  0.00000000  1
  O  O23  1  0.19613900  0.50231500  0.32796700  1
  O  O24  1  0.19613900  0.50231500  0.67203300  1
  O  O25  1  0.19619250  0.49660050  0.00000000  1
  F  F26  1  0.50000000  0.30690300  0.83613800  1
  F  F27  1  0.50000000  0.30690300  0.16386200  1
  F  F28  1  0.50000000  0.69263000  0.50000000  1
  F  F29  1  0.50000000  0.68854400  0.16645700  1
  F  F30  1  0.50000000  0.68854400  0.83354300  1
  F  F31  1  0.00000000  0.80690300  0.83613800  1
  F  F32  1  0.00000000  0.80690300  0.16386200  1
  F  F33  1  0.00000000  0.19263000  0.50000000  1
  F  F34  1  0.00000000  0.18854400  0.16645700  1
  F  F35  1  0.00000000  0.18854400  0.83354300  1
