# generated using pymatgen
data_Li2Fe3SbO8
_symmetry_space_group_name_H-M   'P 1'
_cell_length_a   6.05035219
_cell_length_b   6.05035219
_cell_length_c   15.10635076
_cell_angle_alpha   90.00000000
_cell_angle_beta   90.00000000
_cell_angle_gamma   120.00000000
_symmetry_Int_Tables_number   1
_chemical_formula_structural   Li2Fe3SbO8
_chemical_formula_sum   'Li6 Fe9 Sb3 O24'
_cell_volume   478.90735519
_cell_formula_units_Z   3
loop_
 _symmetry_equiv_pos_site_id
 _symmetry_equiv_pos_as_xyz
  1  'x, y, z'
loop_
 _atom_site_type_symbol
 _atom_site_label
 _atom_site_symmetry_multiplicity
 _atom_site_fract_x
 _atom_site_fract_y
 _atom_site_fract_z
 _atom_site_occupancy
  Li  Li0  1  0.66666667  0.33333333  0.20117533  1
  Li  Li1  1  0.00000000  0.00000000  0.13215800  1
  Li  Li2  1  0.33333333  0.66666667  0.53450867  1
  Li  Li3  1  0.66666667  0.33333333  0.46549133  1
  Li  Li4  1  0.00000000  0.00000000  0.86784200  1
  Li  Li5  1  0.33333333  0.66666667  0.79882467  1
  Fe  Fe6  1  0.66666667  0.83333333  0.33333333  1
  Fe  Fe7  1  0.50000000  0.00000000  0.00000000  1
  Fe  Fe8  1  0.16666667  0.83333333  0.33333333  1
  Fe  Fe9  1  0.33333333  0.16666667  0.66666667  1
  Fe  Fe10  1  0.16666667  0.33333333  0.33333333  1
  Fe  Fe11  1  0.83333333  0.16666667  0.66666667  1
  Fe  Fe12  1  0.00000000  0.50000000  0.00000000  1
  Fe  Fe13  1  0.83333333  0.66666667  0.66666667  1
  Fe  Fe14  1  0.50000000  0.50000000  0.00000000  1
  Sb  Sb15  1  0.33333333  0.66666667  0.16666667  1
  Sb  Sb16  1  1.00000000  1.00000000  0.50000000  1
  Sb  Sb17  1  0.66666667  0.33333333  0.83333333  1
  O  O18  1  0.66666667  0.33333333  0.06651933  1
  O  O19  1  0.00000000  0.00000000  0.26681400  1
  O  O20  1  0.48446192  0.51553808  0.25040133  1
  O  O21  1  0.48446192  0.96892383  0.25040133  1
  O  O22  1  0.03107617  0.51553808  0.25040133  1
  O  O23  1  0.63559050  0.81779525  0.08293200  1
  O  O24  1  0.18220475  0.36440950  0.08293200  1
  O  O25  1  0.18220475  0.81779525  0.08293200  1
  O  O26  1  0.33333333  0.66666667  0.39985267  1
  O  O27  1  0.66666667  0.33333333  0.60014733  1
  O  O28  1  0.15112858  0.84887142  0.58373467  1
  O  O29  1  0.15112858  0.30225717  0.58373467  1
  O  O30  1  0.69774283  0.84887142  0.58373467  1
  O  O31  1  0.30225717  0.15112858  0.41626533  1
  O  O32  1  0.84887142  0.69774283  0.41626533  1
  O  O33  1  0.84887142  0.15112858  0.41626533  1
  O  O34  1  0.00000000  0.00000000  0.73318600  1
  O  O35  1  0.33333333  0.66666667  0.93348067  1
  O  O36  1  0.81779525  0.18220475  0.91706800  1
  O  O37  1  0.81779525  0.63559050  0.91706800  1
  O  O38  1  0.36440950  0.18220475  0.91706800  1
  O  O39  1  0.96892383  0.48446192  0.74959867  1
  O  O40  1  0.51553808  0.03107617  0.74959867  1
  O  O41  1  0.51553808  0.48446192  0.74959867  1
