# generated using pymatgen
data_LiNi(PO3)4
_symmetry_space_group_name_H-M   'P 1'
_cell_length_a   16.08434600
_cell_length_b   7.40781000
_cell_length_c   9.72430897
_cell_angle_alpha   90.00000000
_cell_angle_beta   124.64008721
_cell_angle_gamma   90.00000000
_symmetry_Int_Tables_number   1
_chemical_formula_structural   LiNi(PO3)4
_chemical_formula_sum   'Li4 Ni4 P16 O48'
_cell_volume   953.26579106
_cell_formula_units_Z   4
loop_
 _symmetry_equiv_pos_site_id
 _symmetry_equiv_pos_as_xyz
  1  'x, y, z'
loop_
 _atom_site_type_symbol
 _atom_site_label
 _atom_site_symmetry_multiplicity
 _atom_site_fract_x
 _atom_site_fract_y
 _atom_site_fract_z
 _atom_site_occupancy
  Li  Li0  1  0.00000000  0.16914700  0.25000000  1
  Li  Li1  1  0.00000000  0.83085300  0.75000000  1
  Li  Li2  1  0.50000000  0.66914700  0.25000000  1
  Li  Li3  1  0.50000000  0.33085300  0.75000000  1
  Ni  Ni4  1  0.00000000  0.70951900  0.25000000  1
  Ni  Ni5  1  0.00000000  0.29048100  0.75000000  1
  Ni  Ni6  1  0.50000000  0.20951900  0.25000000  1
  Ni  Ni7  1  0.50000000  0.79048100  0.75000000  1
  P  P8  1  0.64136600  0.67080100  0.10629500  1
  P  P9  1  0.64478700  0.07426200  0.16192400  1
  P  P10  1  0.85521300  0.57426200  0.33807600  1
  P  P11  1  0.85863400  0.17080100  0.39370500  1
  P  P12  1  0.14136600  0.82919900  0.60629500  1
  P  P13  1  0.14478700  0.42573800  0.66192400  1
  P  P14  1  0.35521300  0.92573800  0.83807600  1
  P  P15  1  0.35863400  0.32919900  0.89370500  1
  P  P16  1  0.14136600  0.17080100  0.10629500  1
  P  P17  1  0.14478700  0.57426200  0.16192400  1
  P  P18  1  0.35521300  0.07426200  0.33807600  1
  P  P19  1  0.35863400  0.67080100  0.39370500  1
  P  P20  1  0.64136600  0.32919900  0.60629500  1
  P  P21  1  0.64478700  0.92573800  0.66192400  1
  P  P22  1  0.85521300  0.42573800  0.83807600  1
  P  P23  1  0.85863400  0.82919900  0.89370500  1
  O  O24  1  0.62269950  0.21888150  0.04216400  1
  O  O25  1  0.65794500  0.88447800  0.09807800  1
  O  O26  1  0.61203400  0.62082700  0.21971300  1
  O  O27  1  0.74845950  0.59356350  0.15875600  1
  O  O28  1  0.92944700  0.87935500  0.08010600  1
  O  O29  1  0.75154050  0.09356350  0.34124400  1
  O  O30  1  0.88796600  0.12082700  0.28028700  1
  O  O31  1  0.93034250  0.54110150  0.29011100  1
  O  O32  1  0.06965750  0.54110150  0.20988900  1
  O  O33  1  0.84205500  0.38447800  0.40192200  1
  O  O34  1  0.87730050  0.71888150  0.45783600  1
  O  O35  1  0.07055300  0.87935500  0.41989400  1
  O  O36  1  0.92944700  0.12064500  0.58010600  1
  O  O37  1  0.12269950  0.28111850  0.54216400  1
  O  O38  1  0.15794500  0.61552200  0.59807800  1
  O  O39  1  0.93034250  0.45889850  0.79011100  1
  O  O40  1  0.06965750  0.45889850  0.70988900  1
  O  O41  1  0.11203400  0.87917300  0.71971300  1
  O  O42  1  0.24845950  0.90643650  0.65875600  1
  O  O43  1  0.07055300  0.12064500  0.91989400  1
  O  O44  1  0.25154050  0.40643650  0.84124400  1
  O  O45  1  0.38796600  0.37917300  0.78028700  1
  O  O46  1  0.34205500  0.11552200  0.90192200  1
  O  O47  1  0.37730050  0.78111850  0.95783600  1
  O  O48  1  0.12269950  0.71888150  0.04216400  1
  O  O49  1  0.15794500  0.38447800  0.09807800  1
  O  O50  1  0.11203400  0.12082700  0.21971300  1
  O  O51  1  0.24845950  0.09356350  0.15875600  1
  O  O52  1  0.42944700  0.37935500  0.08010600  1
  O  O53  1  0.25154050  0.59356350  0.34124400  1
  O  O54  1  0.38796600  0.62082700  0.28028700  1
  O  O55  1  0.43034250  0.04110150  0.29011100  1
  O  O56  1  0.56965750  0.04110150  0.20988900  1
  O  O57  1  0.34205500  0.88447800  0.40192200  1
  O  O58  1  0.37730050  0.21888150  0.45783600  1
  O  O59  1  0.57055300  0.37935500  0.41989400  1
  O  O60  1  0.42944700  0.62064500  0.58010600  1
  O  O61  1  0.62269950  0.78111850  0.54216400  1
  O  O62  1  0.65794500  0.11552200  0.59807800  1
  O  O63  1  0.43034250  0.95889850  0.79011100  1
  O  O64  1  0.56965750  0.95889850  0.70988900  1
  O  O65  1  0.61203400  0.37917300  0.71971300  1
  O  O66  1  0.74845950  0.40643650  0.65875600  1
  O  O67  1  0.57055300  0.62064500  0.91989400  1
  O  O68  1  0.75154050  0.90643650  0.84124400  1
  O  O69  1  0.88796600  0.87917300  0.78028700  1
  O  O70  1  0.84205500  0.61552200  0.90192200  1
  O  O71  1  0.87730050  0.28111850  0.95783600  1
