# generated using pymatgen
data_Mn8O13F3
_symmetry_space_group_name_H-M   'P 1'
_cell_length_a   4.52668400
_cell_length_b   5.97357800
_cell_length_c   9.34988514
_cell_angle_alpha   90.00000000
_cell_angle_beta   94.12407814
_cell_angle_gamma   90.00000000
_symmetry_Int_Tables_number   1
_chemical_formula_structural   Mn8O13F3
_chemical_formula_sum   'Mn8 O13 F3'
_cell_volume   252.17091442
_cell_formula_units_Z   1
loop_
 _symmetry_equiv_pos_site_id
 _symmetry_equiv_pos_as_xyz
  1  'x, y, z'
loop_
 _atom_site_type_symbol
 _atom_site_label
 _atom_site_symmetry_multiplicity
 _atom_site_fract_x
 _atom_site_fract_y
 _atom_site_fract_z
 _atom_site_occupancy
  Mn  Mn0  1  0.00348500  0.00000000  0.99928200  1
  Mn  Mn1  1  0.53919900  0.24930900  0.73563700  1
  Mn  Mn2  1  0.97005000  0.50000000  0.01332600  1
  Mn  Mn3  1  0.01007900  0.00000000  0.49506100  1
  Mn  Mn4  1  0.47283900  0.25733200  0.26029800  1
  Mn  Mn5  1  0.53919900  0.75069100  0.73563700  1
  Mn  Mn6  1  0.00327800  0.50000000  0.49909600  1
  Mn  Mn7  1  0.47283900  0.74266800  0.26029800  1
  O  O8  1  0.78352900  0.24896800  0.91011500  1
  O  O9  1  0.20592900  0.25193200  0.09233600  1
  O  O10  1  0.74082200  0.00000000  0.65997400  1
  O  O11  1  0.20592900  0.74806800  0.09233600  1
  O  O12  1  0.22375300  0.24864400  0.58435100  1
  O  O13  1  0.73700500  0.50000000  0.65653000  1
  O  O14  1  0.78352900  0.75103200  0.91011500  1
  O  O15  1  0.77925100  0.24963200  0.41661500  1
  O  O16  1  0.26840300  0.00000000  0.33859400  1
  O  O17  1  0.77925100  0.75036800  0.41661500  1
  O  O18  1  0.27210500  0.50000000  0.33883800  1
  O  O19  1  0.22375300  0.75135600  0.58435100  1
  O  O20  1  0.67542200  0.50000000  0.17654400  1
  F  F21  1  0.30827000  0.00000000  0.82807000  1
  F  F22  1  0.68513600  0.00000000  0.17186100  1
  F  F23  1  0.31694700  0.50000000  0.82412000  1
