# generated using pymatgen
data_Li4Fe3Co3(SbO8)2
_symmetry_space_group_name_H-M   'P 1'
_cell_length_a   10.18832000
_cell_length_b   5.88595200
_cell_length_c   9.59533722
_cell_angle_alpha   90.00000000
_cell_angle_beta   91.19508712
_cell_angle_gamma   90.00000000
_symmetry_Int_Tables_number   1
_chemical_formula_structural   Li4Fe3Co3(SbO8)2
_chemical_formula_sum   'Li8 Fe6 Co6 Sb4 O32'
_cell_volume   575.28765607
_cell_formula_units_Z   2
loop_
 _symmetry_equiv_pos_site_id
 _symmetry_equiv_pos_as_xyz
  1  'x, y, z'
loop_
 _atom_site_type_symbol
 _atom_site_label
 _atom_site_symmetry_multiplicity
 _atom_site_fract_x
 _atom_site_fract_y
 _atom_site_fract_z
 _atom_site_occupancy
  Li  Li0  1  0.33849900  0.00000000  0.09476900  1
  Li  Li1  1  0.99428000  0.00000000  0.00766300  1
  Li  Li2  1  0.99246900  0.00000000  0.50964400  1
  Li  Li3  1  0.67102500  0.00000000  0.60122500  1
  Li  Li4  1  0.83849900  0.50000000  0.09476900  1
  Li  Li5  1  0.49428000  0.50000000  0.00766300  1
  Li  Li6  1  0.49246900  0.50000000  0.50964400  1
  Li  Li7  1  0.17102500  0.50000000  0.60122500  1
  Fe  Fe8  1  0.16900900  0.00000000  0.78586500  1
  Fe  Fe9  1  0.58404350  0.24545850  0.28576800  1
  Fe  Fe10  1  0.58404350  0.75454150  0.28576800  1
  Fe  Fe11  1  0.66900900  0.50000000  0.78586500  1
  Fe  Fe12  1  0.08404350  0.74545850  0.28576800  1
  Fe  Fe13  1  0.08404350  0.25454150  0.28576800  1
  Co  Co14  1  0.41393900  0.24392300  0.78589100  1
  Co  Co15  1  0.41393900  0.75607700  0.78589100  1
  Co  Co16  1  0.82656300  0.00000000  0.28505400  1
  Co  Co17  1  0.91393900  0.74392300  0.78589100  1
  Co  Co18  1  0.91393900  0.25607700  0.78589100  1
  Co  Co19  1  0.32656300  0.50000000  0.28505400  1
  Sb  Sb20  1  0.33452400  0.00000000  0.51488700  1
  Sb  Sb21  1  0.66772400  0.00000000  0.00848400  1
  Sb  Sb22  1  0.83452400  0.50000000  0.51488700  1
  Sb  Sb23  1  0.16772400  0.50000000  0.00848400  1
  O  O24  1  0.41473250  0.25249350  0.40251300  1
  O  O25  1  0.48309400  0.00000000  0.66790900  1
  O  O26  1  0.33863500  0.00000000  0.88853600  1
  O  O27  1  0.99365100  0.00000000  0.69636200  1
  O  O28  1  0.99177700  0.00000000  0.19553800  1
  O  O29  1  0.41473250  0.74750650  0.40251300  1
  O  O30  1  0.26478700  0.22780400  0.65807900  1
  O  O31  1  0.26478700  0.77219600  0.65807900  1
  O  O32  1  0.83569300  0.00000000  0.89725700  1
  O  O33  1  0.16390900  0.00000000  0.40945600  1
  O  O34  1  0.74714900  0.22012100  0.15673500  1
  O  O35  1  0.74714900  0.77987900  0.15673500  1
  O  O36  1  0.66949900  0.00000000  0.39374100  1
  O  O37  1  0.58024050  0.25446350  0.90392600  1
  O  O38  1  0.52003300  0.00000000  0.14999000  1
  O  O39  1  0.58024050  0.74553650  0.90392600  1
  O  O40  1  0.91473250  0.75249350  0.40251300  1
  O  O41  1  0.98309400  0.50000000  0.66790900  1
  O  O42  1  0.83863500  0.50000000  0.88853600  1
  O  O43  1  0.49365100  0.50000000  0.69636200  1
  O  O44  1  0.49177700  0.50000000  0.19553800  1
  O  O45  1  0.91473250  0.24750650  0.40251300  1
  O  O46  1  0.76478700  0.72780400  0.65807900  1
  O  O47  1  0.76478700  0.27219600  0.65807900  1
  O  O48  1  0.33569300  0.50000000  0.89725700  1
  O  O49  1  0.66390900  0.50000000  0.40945600  1
  O  O50  1  0.24714900  0.72012100  0.15673500  1
  O  O51  1  0.24714900  0.27987900  0.15673500  1
  O  O52  1  0.16949900  0.50000000  0.39374100  1
  O  O53  1  0.08024050  0.75446350  0.90392600  1
  O  O54  1  0.02003300  0.50000000  0.14999000  1
  O  O55  1  0.08024050  0.24553650  0.90392600  1
