# generated using pymatgen
data_Mn3Fe2Co(PO4)6
_symmetry_space_group_name_H-M   'P 1'
_cell_length_a   8.53504179
_cell_length_b   8.53504179
_cell_length_c   20.57135131
_cell_angle_alpha   90.00000000
_cell_angle_beta   90.00000000
_cell_angle_gamma   120.00000000
_symmetry_Int_Tables_number   1
_chemical_formula_structural   Mn3Fe2Co(PO4)6
_chemical_formula_sum   'Mn9 Fe6 Co3 P18 O72'
_cell_volume   1297.79099483
_cell_formula_units_Z   3
loop_
 _symmetry_equiv_pos_site_id
 _symmetry_equiv_pos_as_xyz
  1  'x, y, z'
loop_
 _atom_site_type_symbol
 _atom_site_label
 _atom_site_symmetry_multiplicity
 _atom_site_fract_x
 _atom_site_fract_y
 _atom_site_fract_z
 _atom_site_occupancy
  Mn  Mn0  1  0.33333333  0.66666667  0.30800267  1
  Mn  Mn1  1  0.33333333  0.66666667  0.52543967  1
  Mn  Mn2  1  0.33333333  0.66666667  0.02469367  1
  Mn  Mn3  1  0.00000000  0.00000000  0.64133600  1
  Mn  Mn4  1  0.00000000  0.00000000  0.85877300  1
  Mn  Mn5  1  0.00000000  0.00000000  0.35802700  1
  Mn  Mn6  1  0.66666667  0.33333333  0.97466933  1
  Mn  Mn7  1  0.66666667  0.33333333  0.19210633  1
  Mn  Mn8  1  0.66666667  0.33333333  0.69136033  1
  Fe  Fe9  1  0.33333333  0.66666667  0.66762567  1
  Fe  Fe10  1  0.33333333  0.66666667  0.16592967  1
  Fe  Fe11  1  0.00000000  0.00000000  0.00095900  1
  Fe  Fe12  1  0.00000000  0.00000000  0.49926300  1
  Fe  Fe13  1  0.66666667  0.33333333  0.33429233  1
  Fe  Fe14  1  0.66666667  0.33333333  0.83259633  1
  Co  Co15  1  0.33333333  0.66666667  0.80702367  1
  Co  Co16  1  0.00000000  0.00000000  0.14035700  1
  Co  Co17  1  0.66666667  0.33333333  0.47369033  1
  P  P18  1  0.71111033  0.70995267  0.24954067  1
  P  P19  1  0.29004733  0.00115767  0.24954067  1
  P  P20  1  0.99884233  0.28888967  0.24954067  1
  P  P21  1  0.66877300  0.04371400  0.08338700  1
  P  P22  1  0.37494100  0.33122700  0.08338700  1
  P  P23  1  0.95628600  0.62505900  0.08338700  1
  P  P24  1  0.37777700  0.04328600  0.58287400  1
  P  P25  1  0.95671400  0.33449100  0.58287400  1
  P  P26  1  0.66550900  0.62222300  0.58287400  1
  P  P27  1  0.33543967  0.37704733  0.41672033  1
  P  P28  1  0.04160767  0.66456033  0.41672033  1
  P  P29  1  0.62295267  0.95839233  0.41672033  1
  P  P30  1  0.04444367  0.37661933  0.91620733  1
  P  P31  1  0.62338067  0.66782433  0.91620733  1
  P  P32  1  0.33217567  0.95555633  0.91620733  1
  P  P33  1  0.00210633  0.71038067  0.75005367  1
  P  P34  1  0.70827433  0.99789367  0.75005367  1
  P  P35  1  0.28961933  0.29172567  0.75005367  1
  O  O36  1  0.53036767  0.66856233  0.97953533  1
  O  O37  1  0.33143767  0.86180533  0.97953533  1
  O  O38  1  0.13819467  0.46963233  0.97953533  1
  O  O39  1  0.68334900  0.51441300  0.25805800  1
  O  O40  1  0.80433433  0.80372567  0.18675567  1
  O  O41  1  0.51570900  0.68531200  0.24326800  1
  O  O42  1  0.48558700  0.16893600  0.25805800  1
  O  O43  1  0.31468800  0.83039700  0.24326800  1
  O  O44  1  0.66711433  0.13842867  0.14599967  1
  O  O45  1  0.16960300  0.48429100  0.24326800  1
  O  O46  1  0.83945000  0.02098300  0.07643000  1
  O  O47  1  0.47131433  0.33288567  0.14599967  1
  O  O48  1  0.19627433  0.00060867  0.18675567  1
  O  O49  1  0.83106400  0.31665100  0.25805800  1
  O  O50  1  0.49662700  0.85218700  0.09004200  1
  O  O51  1  0.99939133  0.19566567  0.18675567  1
  O  O52  1  0.35556000  0.50337300  0.09004200  1
  O  O53  1  0.18153300  0.16055000  0.07643000  1
  O  O54  1  0.14781300  0.64444000  0.09004200  1
  O  O55  1  0.86157133  0.52868567  0.14599967  1
  O  O56  1  0.97901700  0.81846700  0.07643000  1
  O  O57  1  0.52905233  0.85845667  0.35407867  1
  O  O58  1  0.32940433  0.47094767  0.35407867  1
  O  O59  1  0.14154333  0.67059567  0.35407867  1
  O  O60  1  0.19703433  0.00189567  0.31286867  1
  O  O61  1  0.99810433  0.19513867  0.31286867  1
  O  O62  1  0.80486133  0.80296567  0.31286867  1
  O  O63  1  0.35001567  0.84774633  0.59139133  1
  O  O64  1  0.47100100  0.13705900  0.52008900  1
  O  O65  1  0.18237567  0.01864533  0.57660133  1
  O  O66  1  0.15225367  0.50226933  0.59139133  1
  O  O67  1  0.98135467  0.16373033  0.57660133  1
  O  O68  1  0.33378100  0.47176200  0.47933300  1
  O  O69  1  0.83626967  0.81762433  0.57660133  1
  O  O70  1  0.50611667  0.35431633  0.40976333  1
  O  O71  1  0.13798100  0.66621900  0.47933300  1
  O  O72  1  0.86294100  0.33394200  0.52008900  1
  O  O73  1  0.49773067  0.64998433  0.59139133  1
  O  O74  1  0.16329367  0.18552033  0.42337533  1
  O  O75  1  0.66605800  0.52899900  0.52008900  1
  O  O76  1  0.02222667  0.83670633  0.42337533  1
  O  O77  1  0.84819967  0.49388333  0.40976333  1
  O  O78  1  0.81447967  0.97777333  0.42337533  1
  O  O79  1  0.52823800  0.86201900  0.47933300  1
  O  O80  1  0.64568367  0.15180033  0.40976333  1
  O  O81  1  0.19571900  0.19179000  0.68741200  1
  O  O82  1  0.99607100  0.80428100  0.68741200  1
  O  O83  1  0.80821000  0.00392900  0.68741200  1
  O  O84  1  0.86370100  0.33522900  0.64620200  1
  O  O85  1  0.66477100  0.52847200  0.64620200  1
  O  O86  1  0.47152800  0.13629900  0.64620200  1
  O  O87  1  0.01668233  0.18107967  0.92472467  1
  O  O88  1  0.13766767  0.47039233  0.85342233  1
  O  O89  1  0.84904233  0.35197867  0.90993467  1
  O  O90  1  0.81892033  0.83560267  0.92472467  1
  O  O91  1  0.64802133  0.49706367  0.90993467  1
  O  O92  1  0.00044767  0.80509533  0.81266633  1
  O  O93  1  0.50293633  0.15095767  0.90993467  1
  O  O94  1  0.17278333  0.68764967  0.74309667  1
  O  O95  1  0.80464767  0.99955233  0.81266633  1
  O  O96  1  0.52960767  0.66727533  0.85342233  1
  O  O97  1  0.16439733  0.98331767  0.92472467  1
  O  O98  1  0.82996033  0.51885367  0.75670867  1
  O  O99  1  0.33272467  0.86233233  0.85342233  1
  O  O100  1  0.68889333  0.17003967  0.75670867  1
  O  O101  1  0.51486633  0.82721667  0.74309667  1
  O  O102  1  0.48114633  0.31110667  0.75670867  1
  O  O103  1  0.19490467  0.19535233  0.81266633  1
  O  O104  1  0.31235033  0.48513367  0.74309667  1
  O  O105  1  0.86238567  0.52512333  0.02074533  1
  O  O106  1  0.66273767  0.13761433  0.02074533  1
  O  O107  1  0.47487667  0.33726233  0.02074533  1
