# generated using pymatgen
data_Li3Co2(SiO4)2
_symmetry_space_group_name_H-M   'P 1'
_cell_length_a   7.55753600
_cell_length_b   7.19162000
_cell_length_c   6.74235348
_cell_angle_alpha   90.00000000
_cell_angle_beta   93.27129779
_cell_angle_gamma   90.00000000
_symmetry_Int_Tables_number   1
_chemical_formula_structural   Li3Co2(SiO4)2
_chemical_formula_sum   'Li6 Co4 Si4 O16'
_cell_volume   365.85603675
_cell_formula_units_Z   2
loop_
 _symmetry_equiv_pos_site_id
 _symmetry_equiv_pos_as_xyz
  1  'x, y, z'
loop_
 _atom_site_type_symbol
 _atom_site_label
 _atom_site_symmetry_multiplicity
 _atom_site_fract_x
 _atom_site_fract_y
 _atom_site_fract_z
 _atom_site_occupancy
  Li  Li0  1  0.84152950  0.26181150  0.04961800  1
  Li  Li1  1  0.15847050  0.26181150  0.95038200  1
  Li  Li2  1  0.00000000  0.86167700  0.00000000  1
  Li  Li3  1  0.34152950  0.76181150  0.04961800  1
  Li  Li4  1  0.65847050  0.76181150  0.95038200  1
  Li  Li5  1  0.50000000  0.36167700  0.00000000  1
  Co  Co6  1  0.00000000  0.19360300  0.50000000  1
  Co  Co7  1  0.00000000  0.79969300  0.50000000  1
  Co  Co8  1  0.50000000  0.69360300  0.50000000  1
  Co  Co9  1  0.50000000  0.29969300  0.50000000  1
  Si  Si10  1  0.82520350  0.49339050  0.75016200  1
  Si  Si11  1  0.17479650  0.49339050  0.24983800  1
  Si  Si12  1  0.32520350  0.99339050  0.75016200  1
  Si  Si13  1  0.67479650  0.99339050  0.24983800  1
  O  O14  1  0.68000150  0.48749950  0.55324100  1
  O  O15  1  0.96144700  0.31639900  0.75173500  1
  O  O16  1  0.71845100  0.49373400  0.95127600  1
  O  O17  1  0.03855300  0.31639900  0.24826500  1
  O  O18  1  0.93277950  0.69531050  0.73284300  1
  O  O19  1  0.28154900  0.49373400  0.04872400  1
  O  O20  1  0.06722050  0.69531050  0.26715700  1
  O  O21  1  0.31999850  0.48749950  0.44675900  1
  O  O22  1  0.18000150  0.98749950  0.55324100  1
  O  O23  1  0.46144700  0.81639900  0.75173500  1
  O  O24  1  0.21845100  0.99373400  0.95127600  1
  O  O25  1  0.53855300  0.81639900  0.24826500  1
  O  O26  1  0.43277950  0.19531050  0.73284300  1
  O  O27  1  0.78154900  0.99373400  0.04872400  1
  O  O28  1  0.56722050  0.19531050  0.26715700  1
  O  O29  1  0.81999850  0.98749950  0.44675900  1
