# generated using pymatgen
data_LiVCr(P2O7)2
_symmetry_space_group_name_H-M   'P 1'
_cell_length_a   4.88199025
_cell_length_b   6.99828389
_cell_length_c   8.08413018
_cell_angle_alpha   89.99765648
_cell_angle_beta   90.37308510
_cell_angle_gamma   107.69378232
_symmetry_Int_Tables_number   1
_chemical_formula_structural   LiVCr(P2O7)2
_chemical_formula_sum   'Li1 V1 Cr1 P4 O14'
_cell_volume   263.12693110
_cell_formula_units_Z   1
loop_
 _symmetry_equiv_pos_site_id
 _symmetry_equiv_pos_as_xyz
  1  'x, y, z'
loop_
 _atom_site_type_symbol
 _atom_site_label
 _atom_site_symmetry_multiplicity
 _atom_site_fract_x
 _atom_site_fract_y
 _atom_site_fract_z
 _atom_site_occupancy
  Li  Li0  1  0.16836150  0.67599500  0.13303850  1
  V  V1  1  0.20598100  0.72439900  0.50479200  1
  Cr  Cr2  1  0.78464850  0.27204850  0.99483000  1
  P  P3  1  0.39699300  0.51692550  0.81722750  1
  P  P4  1  0.22895700  0.09266300  0.22004600  1
  P  P5  1  0.77570300  0.91123100  0.72028300  1
  P  P6  1  0.60207750  0.48061350  0.32039400  1
  O  O7  1  0.04242750  0.85155850  0.66603100  1
  O  O8  1  0.14497300  0.89053600  0.31353900  1
  O  O9  1  0.16873250  0.48903200  0.95199350  1
  O  O10  1  0.26440950  0.51977600  0.64361550  1
  O  O11  1  0.38966300  0.60602650  0.32184150  1
  O  O12  1  0.58139400  0.90429200  0.56777400  1
  O  O13  1  0.60435450  0.74442650  0.85167100  1
  O  O14  1  0.42115800  0.25173400  0.35427900  1
  O  O15  1  0.41469350  0.07772950  0.07176200  1
  O  O16  1  0.57709700  0.37649100  0.82176000  1
  O  O17  1  0.74413600  0.49207750  0.15037150  1
  O  O18  1  0.82301250  0.53863300  0.45989550  1
  O  O19  1  0.86954800  0.10433550  0.81539950  1
  O  O20  1  0.96758450  0.15627200  0.17677450  1
