# generated using pymatgen
data_Na3NiBSO7
_symmetry_space_group_name_H-M   'P 1'
_cell_length_a   5.27549092
_cell_length_b   6.75477000
_cell_length_c   8.97124663
_cell_angle_alpha   90.00000000
_cell_angle_beta   91.50264303
_cell_angle_gamma   90.00000000
_symmetry_Int_Tables_number   1
_chemical_formula_structural   Na3NiBSO7
_chemical_formula_sum   'Na6 Ni2 B2 S2 O14'
_cell_volume   319.57799624
_cell_formula_units_Z   2
loop_
 _symmetry_equiv_pos_site_id
 _symmetry_equiv_pos_as_xyz
  1  'x, y, z'
loop_
 _atom_site_type_symbol
 _atom_site_label
 _atom_site_symmetry_multiplicity
 _atom_site_fract_x
 _atom_site_fract_y
 _atom_site_fract_z
 _atom_site_occupancy
  Na  Na0  1  0.24829650  0.75000000  0.93742275  1
  Na  Na1  1  0.75170350  0.25000000  0.06257725  1
  Na  Na2  1  0.74079550  0.00725700  0.75944575  1
  Na  Na3  1  0.74079550  0.49274300  0.75944575  1
  Na  Na4  1  0.25920450  0.50725700  0.24055425  1
  Na  Na5  1  0.25920450  0.99274300  0.24055425  1
  Ni  Ni6  1  0.26715350  0.25000000  0.66427525  1
  Ni  Ni7  1  0.73284650  0.75000000  0.33572475  1
  B  B8  1  0.23118250  0.25000000  0.93288225  1
  B  B9  1  0.76881750  0.75000000  0.06711775  1
  S  S10  1  0.21822200  0.75000000  0.57968275  1
  S  S11  1  0.78177800  0.25000000  0.42031725  1
  O  O12  1  0.79246150  0.75000000  0.91644575  1
  O  O13  1  0.20753850  0.25000000  0.08355425  1
  O  O14  1  0.46438950  0.25000000  0.86127825  1
  O  O15  1  0.53561050  0.75000000  0.13872175  1
  O  O16  1  0.02247250  0.25000000  0.83207675  1
  O  O17  1  0.97752750  0.75000000  0.16792325  1
  O  O18  1  0.93865900  0.75000000  0.54303125  1
  O  O19  1  0.06134100  0.25000000  0.45696875  1
  O  O20  1  0.63885300  0.25000000  0.56120725  1
  O  O21  1  0.36114700  0.75000000  0.43879275  1
  O  O22  1  0.28437300  0.92688750  0.67248225  1
  O  O23  1  0.28437300  0.57311250  0.67248225  1
  O  O24  1  0.71562700  0.42688750  0.32751775  1
  O  O25  1  0.71562700  0.07311250  0.32751775  1
