# generated using pymatgen
data_Li2VFe3O8
_symmetry_space_group_name_H-M   'P 1'
_cell_length_a   5.93619000
_cell_length_b   10.15029200
_cell_length_c   9.42631400
_cell_angle_alpha   90.00000000
_cell_angle_beta   90.00000000
_cell_angle_gamma   90.00000000
_symmetry_Int_Tables_number   1
_chemical_formula_structural   Li2VFe3O8
_chemical_formula_sum   'Li8 V4 Fe12 O32'
_cell_volume   567.97370694
_cell_formula_units_Z   4
loop_
 _symmetry_equiv_pos_site_id
 _symmetry_equiv_pos_as_xyz
  1  'x, y, z'
loop_
 _atom_site_type_symbol
 _atom_site_label
 _atom_site_symmetry_multiplicity
 _atom_site_fract_x
 _atom_site_fract_y
 _atom_site_fract_z
 _atom_site_occupancy
  Li  Li0  1  0.50000000  0.16656200  0.10086300  1
  Li  Li1  1  0.50000000  0.49980900  0.00893700  1
  Li  Li2  1  0.50000000  0.50019100  0.50893700  1
  Li  Li3  1  0.50000000  0.83343800  0.60086300  1
  Li  Li4  1  0.00000000  0.66656200  0.10086300  1
  Li  Li5  1  0.00000000  0.99980900  0.00893700  1
  Li  Li6  1  0.00000000  0.00019100  0.50893700  1
  Li  Li7  1  0.00000000  0.33343800  0.60086300  1
  V  V8  1  0.50000000  0.16629500  0.50310100  1
  V  V9  1  0.50000000  0.83370500  0.00310100  1
  V  V10  1  0.00000000  0.66629500  0.50310100  1
  V  V11  1  0.00000000  0.33370500  0.00310100  1
  Fe  Fe12  1  0.25741900  0.08777200  0.78178200  1
  Fe  Fe13  1  0.50000000  0.32582600  0.78577400  1
  Fe  Fe14  1  0.74258100  0.08777200  0.78178200  1
  Fe  Fe15  1  0.25741900  0.91222800  0.28178200  1
  Fe  Fe16  1  0.50000000  0.67417400  0.28577400  1
  Fe  Fe17  1  0.74258100  0.91222800  0.28178200  1
  Fe  Fe18  1  0.75741900  0.58777200  0.78178200  1
  Fe  Fe19  1  0.00000000  0.82582600  0.78577400  1
  Fe  Fe20  1  0.24258100  0.58777200  0.78178200  1
  Fe  Fe21  1  0.75741900  0.41222800  0.28178200  1
  Fe  Fe22  1  0.00000000  0.17417400  0.28577400  1
  Fe  Fe23  1  0.24258100  0.41222800  0.28178200  1
  O  O24  1  0.25897300  0.09206700  0.40992300  1
  O  O25  1  0.28562600  0.24436200  0.65526500  1
  O  O26  1  0.50000000  0.16740700  0.89470000  1
  O  O27  1  0.50000000  0.49601300  0.70001500  1
  O  O28  1  0.50000000  0.50398700  0.20001500  1
  O  O29  1  0.50000000  0.32686300  0.41072600  1
  O  O30  1  0.50000000  0.02231600  0.64789700  1
  O  O31  1  0.71437400  0.24436200  0.65526500  1
  O  O32  1  0.25897300  0.90793300  0.90992300  1
  O  O33  1  0.74102700  0.09206700  0.40992300  1
  O  O34  1  0.28562600  0.75563800  0.15526500  1
  O  O35  1  0.50000000  0.97768400  0.14789700  1
  O  O36  1  0.50000000  0.83259300  0.39470000  1
  O  O37  1  0.50000000  0.67313700  0.91072600  1
  O  O38  1  0.71437400  0.75563800  0.15526500  1
  O  O39  1  0.74102700  0.90793300  0.90992300  1
  O  O40  1  0.75897300  0.59206700  0.40992300  1
  O  O41  1  0.78562600  0.74436200  0.65526500  1
  O  O42  1  0.00000000  0.66740700  0.89470000  1
  O  O43  1  0.00000000  0.99601300  0.70001500  1
  O  O44  1  0.00000000  0.00398700  0.20001500  1
  O  O45  1  0.00000000  0.82686300  0.41072600  1
  O  O46  1  0.00000000  0.52231600  0.64789700  1
  O  O47  1  0.21437400  0.74436200  0.65526500  1
  O  O48  1  0.75897300  0.40793300  0.90992300  1
  O  O49  1  0.24102700  0.59206700  0.40992300  1
  O  O50  1  0.78562600  0.25563800  0.15526500  1
  O  O51  1  0.00000000  0.47768400  0.14789700  1
  O  O52  1  0.00000000  0.33259300  0.39470000  1
  O  O53  1  0.00000000  0.17313700  0.91072600  1
  O  O54  1  0.21437400  0.25563800  0.15526500  1
  O  O55  1  0.24102700  0.40793300  0.90992300  1
