# generated using pymatgen
data_Li2CoCSO7
_symmetry_space_group_name_H-M   'P 1'
_cell_length_a   4.97821740
_cell_length_b   6.43002376
_cell_length_c   8.96035030
_cell_angle_alpha   90.00000000
_cell_angle_beta   96.60622446
_cell_angle_gamma   90.00000000
_symmetry_Int_Tables_number   1
_chemical_formula_structural   Li2CoCSO7
_chemical_formula_sum   'Li4 Co2 C2 S2 O14'
_cell_volume   284.91690160
_cell_formula_units_Z   2
loop_
 _symmetry_equiv_pos_site_id
 _symmetry_equiv_pos_as_xyz
  1  'x, y, z'
loop_
 _atom_site_type_symbol
 _atom_site_label
 _atom_site_symmetry_multiplicity
 _atom_site_fract_x
 _atom_site_fract_y
 _atom_site_fract_z
 _atom_site_occupancy
  Li  Li0  1  0.71060850  0.48469600  0.81769850  1
  Li  Li1  1  0.71060850  0.01530400  0.81769850  1
  Li  Li2  1  0.28939150  0.51530400  0.18230150  1
  Li  Li3  1  0.28939150  0.98469600  0.18230150  1
  Co  Co4  1  0.26595350  0.25000000  0.64747350  1
  Co  Co5  1  0.73404650  0.75000000  0.35252650  1
  C  C6  1  0.22701550  0.25000000  0.92765000  1
  C  C7  1  0.77298450  0.75000000  0.07235000  1
  S  S8  1  0.25213350  0.75000000  0.58882850  1
  S  S9  1  0.74786650  0.25000000  0.41117150  1
  O  O10  1  0.80128750  0.75000000  0.93288850  1
  O  O11  1  0.19871250  0.25000000  0.06711150  1
  O  O12  1  0.46417150  0.25000000  0.87780000  1
  O  O13  1  0.53582850  0.75000000  0.12220000  1
  O  O14  1  0.01789050  0.25000000  0.82267350  1
  O  O15  1  0.98210950  0.75000000  0.17732650  1
  O  O16  1  0.64471950  0.25000000  0.56028150  1
  O  O17  1  0.35528050  0.75000000  0.43971850  1
  O  O18  1  0.94994050  0.75000000  0.56440550  1
  O  O19  1  0.05005950  0.25000000  0.43559450  1
  O  O20  1  0.34864350  0.93578550  0.67996950  1
  O  O21  1  0.34864350  0.56421450  0.67996950  1
  O  O22  1  0.65135650  0.43578550  0.32003050  1
  O  O23  1  0.65135650  0.06421450  0.32003050  1
