# generated using pymatgen
data_Na2FeO3
_symmetry_space_group_name_H-M   'P 1'
_cell_length_a   5.55700601
_cell_length_b   10.93808802
_cell_length_c   11.14643300
_cell_angle_alpha   90.00000000
_cell_angle_beta   90.00000000
_cell_angle_gamma   90.00000000
_symmetry_Int_Tables_number   1
_chemical_formula_structural   Na2FeO3
_chemical_formula_sum   'Na16 Fe8 O24'
_cell_volume   677.51386977
_cell_formula_units_Z   8
loop_
 _symmetry_equiv_pos_site_id
 _symmetry_equiv_pos_as_xyz
  1  'x, y, z'
loop_
 _atom_site_type_symbol
 _atom_site_label
 _atom_site_symmetry_multiplicity
 _atom_site_fract_x
 _atom_site_fract_y
 _atom_site_fract_z
 _atom_site_occupancy
  Na  Na0  1  0.50000000  0.03650650  0.14271300  1
  Na  Na1  1  0.50000000  0.46349350  0.64271300  1
  Na  Na2  1  0.00000000  0.03650650  0.35728700  1
  Na  Na3  1  0.00000000  0.46349350  0.85728700  1
  Na  Na4  1  0.50000000  0.12438800  0.58317000  1
  Na  Na5  1  0.50000000  0.37561200  0.08317000  1
  Na  Na6  1  0.00000000  0.37561200  0.41683000  1
  Na  Na7  1  0.00000000  0.12438800  0.91683000  1
  Na  Na8  1  0.00000000  0.53650650  0.14271300  1
  Na  Na9  1  0.00000000  0.96349350  0.64271300  1
  Na  Na10  1  0.50000000  0.53650650  0.35728700  1
  Na  Na11  1  0.50000000  0.96349350  0.85728700  1
  Na  Na12  1  0.00000000  0.62438800  0.58317000  1
  Na  Na13  1  0.00000000  0.87561200  0.08317000  1
  Na  Na14  1  0.50000000  0.87561200  0.41683000  1
  Na  Na15  1  0.50000000  0.62438800  0.91683000  1
  Fe  Fe16  1  0.50000000  0.25839900  0.84441200  1
  Fe  Fe17  1  0.00000000  0.25839900  0.65558800  1
  Fe  Fe18  1  0.50000000  0.24160100  0.34441200  1
  Fe  Fe19  1  0.00000000  0.24160100  0.15558800  1
  Fe  Fe20  1  0.00000000  0.75839900  0.84441200  1
  Fe  Fe21  1  0.50000000  0.75839900  0.65558800  1
  Fe  Fe22  1  0.00000000  0.74160100  0.34441200  1
  Fe  Fe23  1  0.50000000  0.74160100  0.15558800  1
  O  O24  1  0.25000000  0.30064250  0.25000000  1
  O  O25  1  0.75000000  0.30064250  0.25000000  1
  O  O26  1  0.75000000  0.19935750  0.75000000  1
  O  O27  1  0.25000000  0.19935750  0.75000000  1
  O  O28  1  0.50000000  0.07882300  0.35776300  1
  O  O29  1  0.50000000  0.42117700  0.85776300  1
  O  O30  1  0.00000000  0.07882300  0.14223700  1
  O  O31  1  0.00000000  0.42117700  0.64223700  1
  O  O32  1  0.50000000  0.34434600  0.46671500  1
  O  O33  1  0.50000000  0.15565400  0.96671500  1
  O  O34  1  0.00000000  0.15565400  0.53328500  1
  O  O35  1  0.00000000  0.34434600  0.03328500  1
  O  O36  1  0.75000000  0.80064250  0.25000000  1
  O  O37  1  0.25000000  0.80064250  0.25000000  1
  O  O38  1  0.25000000  0.69935750  0.75000000  1
  O  O39  1  0.75000000  0.69935750  0.75000000  1
  O  O40  1  0.00000000  0.57882300  0.35776300  1
  O  O41  1  0.00000000  0.92117700  0.85776300  1
  O  O42  1  0.50000000  0.57882300  0.14223700  1
  O  O43  1  0.50000000  0.92117700  0.64223700  1
  O  O44  1  0.00000000  0.84434600  0.46671500  1
  O  O45  1  0.00000000  0.65565400  0.96671500  1
  O  O46  1  0.50000000  0.65565400  0.53328500  1
  O  O47  1  0.50000000  0.84434600  0.03328500  1
