# generated using pymatgen
data_Li5Fe5O12
_symmetry_space_group_name_H-M   'P 1'
_cell_length_a   5.17125547
_cell_length_b   8.84150555
_cell_length_c   10.36248678
_cell_angle_alpha   90.00000000
_cell_angle_beta   91.49900179
_cell_angle_gamma   90.00000000
_symmetry_Int_Tables_number   1
_chemical_formula_structural   Li5Fe5O12
_chemical_formula_sum   'Li10 Fe10 O24'
_cell_volume   473.62820538
_cell_formula_units_Z   2
loop_
 _symmetry_equiv_pos_site_id
 _symmetry_equiv_pos_as_xyz
  1  'x, y, z'
loop_
 _atom_site_type_symbol
 _atom_site_label
 _atom_site_symmetry_multiplicity
 _atom_site_fract_x
 _atom_site_fract_y
 _atom_site_fract_z
 _atom_site_occupancy
  Li  Li0  1  0.59402350  0.74313050  0.24904700  1
  Li  Li1  1  0.40597650  0.74313050  0.75095300  1
  Li  Li2  1  0.00000000  0.99933600  0.00000000  1
  Li  Li3  1  0.59367350  0.24970950  0.24973400  1
  Li  Li4  1  0.40632650  0.24970950  0.75026600  1
  Li  Li5  1  0.09402350  0.24313050  0.24904700  1
  Li  Li6  1  0.90597650  0.24313050  0.75095300  1
  Li  Li7  1  0.50000000  0.49933600  0.00000000  1
  Li  Li8  1  0.09367350  0.74970950  0.24973400  1
  Li  Li9  1  0.90632650  0.74970950  0.75026600  1
  Fe  Fe10  1  0.50000000  0.66380550  0.50000000  1
  Fe  Fe11  1  0.50000000  0.16405600  0.00000000  1
  Fe  Fe12  1  0.50000000  0.83528950  0.00000000  1
  Fe  Fe13  1  0.50000000  0.33327950  0.50000000  1
  Fe  Fe14  1  0.50000000  0.00396750  0.50000000  1
  Fe  Fe15  1  0.00000000  0.16380550  0.50000000  1
  Fe  Fe16  1  0.00000000  0.66405600  0.00000000  1
  Fe  Fe17  1  0.00000000  0.33528950  0.00000000  1
  Fe  Fe18  1  0.00000000  0.83327950  0.50000000  1
  Fe  Fe19  1  0.00000000  0.50396750  0.50000000  1
  O  O20  1  0.66749400  0.68984900  0.89335200  1
  O  O21  1  0.33250600  0.68984900  0.10664800  1
  O  O22  1  0.65678100  0.82097500  0.60497600  1
  O  O23  1  0.66225450  0.17163250  0.61006300  1
  O  O24  1  0.34321900  0.82097500  0.39502400  1
  O  O25  1  0.83385900  0.00695900  0.40395800  1
  O  O26  1  0.33774550  0.17163250  0.38993700  1
  O  O27  1  0.66688950  0.30937850  0.89271400  1
  O  O28  1  0.63084100  0.00016700  0.90396700  1
  O  O29  1  0.33311050  0.30937850  0.10728600  1
  O  O30  1  0.36915900  0.00016700  0.09603300  1
  O  O31  1  0.16614100  0.00695900  0.59604200  1
  O  O32  1  0.16749400  0.18984900  0.89335200  1
  O  O33  1  0.83250600  0.18984900  0.10664800  1
  O  O34  1  0.15678100  0.32097500  0.60497600  1
  O  O35  1  0.16225450  0.67163250  0.61006300  1
  O  O36  1  0.84321900  0.32097500  0.39502400  1
  O  O37  1  0.33385900  0.50695900  0.40395800  1
  O  O38  1  0.83774550  0.67163250  0.38993700  1
  O  O39  1  0.16688950  0.80937850  0.89271400  1
  O  O40  1  0.13084100  0.50016700  0.90396700  1
  O  O41  1  0.83311050  0.80937850  0.10728600  1
  O  O42  1  0.86915900  0.50016700  0.09603300  1
  O  O43  1  0.66614100  0.50695900  0.59604200  1
