# generated using pymatgen
data_K3FePCO7
_symmetry_space_group_name_H-M   'P 1'
_cell_length_a   5.69203705
_cell_length_b   6.86753750
_cell_length_c   9.74327319
_cell_angle_alpha   90.00000000
_cell_angle_beta   90.02771268
_cell_angle_gamma   90.00000000
_symmetry_Int_Tables_number   1
_chemical_formula_structural   K3FePCO7
_chemical_formula_sum   'K6 Fe2 P2 C2 O14'
_cell_volume   380.86721191
_cell_formula_units_Z   2
loop_
 _symmetry_equiv_pos_site_id
 _symmetry_equiv_pos_as_xyz
  1  'x, y, z'
loop_
 _atom_site_type_symbol
 _atom_site_label
 _atom_site_symmetry_multiplicity
 _atom_site_fract_x
 _atom_site_fract_y
 _atom_site_fract_z
 _atom_site_occupancy
  K  K0  1  0.25728550  0.25000000  0.07283675  1
  K  K1  1  0.74271450  0.75000000  0.92716325  1
  K  K2  1  0.75609250  0.00907800  0.28126675  1
  K  K3  1  0.75609250  0.49092200  0.28126675  1
  K  K4  1  0.24390750  0.50907800  0.71873325  1
  K  K5  1  0.24390750  0.99092200  0.71873325  1
  Fe  Fe6  1  0.26328600  0.75000000  0.35261975  1
  Fe  Fe7  1  0.73671400  0.25000000  0.64738025  1
  P  P8  1  0.22737500  0.25000000  0.42031675  1
  P  P9  1  0.77262500  0.75000000  0.57968325  1
  C  C10  1  0.24320600  0.75000000  0.08014425  1
  C  C11  1  0.75679400  0.25000000  0.91985575  1
  O  O12  1  0.76143550  0.25000000  0.05254275  1
  O  O13  1  0.23856450  0.75000000  0.94745725  1
  O  O14  1  0.44257600  0.75000000  0.14737575  1
  O  O15  1  0.55742400  0.25000000  0.85262425  1
  O  O16  1  0.04895900  0.75000000  0.15235075  1
  O  O17  1  0.95104100  0.25000000  0.84764925  1
  O  O18  1  0.97155400  0.25000000  0.47752725  1
  O  O19  1  0.02844600  0.75000000  0.52247275  1
  O  O20  1  0.59127500  0.75000000  0.46133525  1
  O  O21  1  0.40872500  0.25000000  0.53866475  1
  O  O22  1  0.26135100  0.06588350  0.32726525  1
  O  O23  1  0.26135100  0.43411650  0.32726525  1
  O  O24  1  0.73864900  0.56588350  0.67273475  1
  O  O25  1  0.73864900  0.93411650  0.67273475  1
