# generated using pymatgen
data_LiFePO4
_symmetry_space_group_name_H-M   'P 1'
_cell_length_a   7.22165000
_cell_length_b   7.22165000
_cell_length_c   7.22165000
_cell_angle_alpha   90.00000000
_cell_angle_beta   90.00000000
_cell_angle_gamma   90.00000000
_symmetry_Int_Tables_number   1
_chemical_formula_structural   LiFePO4
_chemical_formula_sum   'Li4 Fe4 P4 O16'
_cell_volume   376.62514261
_cell_formula_units_Z   4
loop_
 _symmetry_equiv_pos_site_id
 _symmetry_equiv_pos_as_xyz
  1  'x, y, z'
loop_
 _atom_site_type_symbol
 _atom_site_label
 _atom_site_symmetry_multiplicity
 _atom_site_fract_x
 _atom_site_fract_y
 _atom_site_fract_z
 _atom_site_occupancy
  Li  Li0  1  0.69699500  0.19699500  0.30300500  1
  Li  Li1  1  0.80300500  0.80300500  0.80300500  1
  Li  Li2  1  0.19699500  0.30300500  0.69699500  1
  Li  Li3  1  0.30300500  0.69699500  0.19699500  1
  Fe  Fe4  1  0.24614333  0.24614333  0.24614333  1
  Fe  Fe5  1  0.25385667  0.75385667  0.74614333  1
  Fe  Fe6  1  0.74614333  0.25385667  0.75385667  1
  Fe  Fe7  1  0.75385667  0.74614333  0.25385667  1
  P  P8  1  0.53299067  0.53299067  0.53299067  1
  P  P9  1  0.46700933  0.03299067  0.96700933  1
  P  P10  1  0.96700933  0.46700933  0.03299067  1
  P  P11  1  0.03299067  0.96700933  0.46700933  1
  O  O12  1  0.65380767  0.65380767  0.65380767  1
  O  O13  1  0.84619233  0.34619233  0.15380767  1
  O  O14  1  0.15380767  0.84619233  0.34619233  1
  O  O15  1  0.34619233  0.15380767  0.84619233  1
  O  O16  1  0.47050300  0.10536500  0.17228900  1
  O  O17  1  0.67228900  0.02949700  0.89463500  1
  O  O18  1  0.60536500  0.32771100  0.52949700  1
  O  O19  1  0.89463500  0.67228900  0.02949700  1
  O  O20  1  0.82771100  0.97050300  0.39463500  1
  O  O21  1  0.02949700  0.89463500  0.67228900  1
  O  O22  1  0.97050300  0.39463500  0.82771100  1
  O  O23  1  0.17228900  0.47050300  0.10536500  1
  O  O24  1  0.10536500  0.17228900  0.47050300  1
  O  O25  1  0.39463500  0.82771100  0.97050300  1
  O  O26  1  0.32771100  0.52949700  0.60536500  1
  O  O27  1  0.52949700  0.60536500  0.32771100  1
