# generated using pymatgen
data_Li2MnV(PO4)3
_symmetry_space_group_name_H-M   'P 1'
_cell_length_a   8.22387557
_cell_length_b   8.41617071
_cell_length_c   8.88430530
_cell_angle_alpha   117.58026741
_cell_angle_beta   90.29570510
_cell_angle_gamma   118.29393239
_symmetry_Int_Tables_number   1
_chemical_formula_structural   Li2MnV(PO4)3
_chemical_formula_sum   'Li4 Mn2 V2 P6 O24'
_cell_volume   459.61555444
_cell_formula_units_Z   2
loop_
 _symmetry_equiv_pos_site_id
 _symmetry_equiv_pos_as_xyz
  1  'x, y, z'
loop_
 _atom_site_type_symbol
 _atom_site_label
 _atom_site_symmetry_multiplicity
 _atom_site_fract_x
 _atom_site_fract_y
 _atom_site_fract_z
 _atom_site_occupancy
  Li  Li0  1  0.91529464  0.73231371  0.85880661  1
  Li  Li1  1  0.67176270  0.06771354  0.86781790  1
  Li  Li2  1  0.32823730  0.93228646  0.13218210  1
  Li  Li3  1  0.08470536  0.26768629  0.14119339  1
  Mn  Mn4  1  0.64933297  0.35433094  0.94874846  1
  Mn  Mn5  1  0.35066703  0.64566906  0.05125154  1
  V  V6  1  0.14440453  0.84711424  0.43644495  1
  V  V7  1  0.85559547  0.15288576  0.56355505  1
  P  P8  1  0.24675747  0.03096970  0.74518113  1
  P  P9  1  0.96151002  0.45462162  0.75392849  1
  P  P10  1  0.53483792  0.74890684  0.75138143  1
  P  P11  1  0.46516208  0.25109316  0.24861857  1
  P  P12  1  0.03848998  0.54537838  0.24607151  1
  P  P13  1  0.75324253  0.96903030  0.25481887  1
  O  O14  1  0.20526226  0.83904206  0.90861036  1
  O  O15  1  0.09745154  0.11775141  0.71187280  1
  O  O16  1  0.45425108  0.15909594  0.79478541  1
  O  O17  1  0.81844984  0.49527576  0.79113784  1
  O  O18  1  0.14231433  0.44534174  0.91247596  1
  O  O19  1  0.51281999  0.79099968  0.89193406  1
  O  O20  1  0.19465527  0.98816577  0.57873109  1
  O  O21  1  0.85940480  0.25631544  0.72531997  1
  O  O22  1  0.00842799  0.61232047  0.58390072  1
  O  O23  1  0.51254867  0.54123565  0.80229284  1
  O  O24  1  0.73769334  0.88791390  0.73033505  1
  O  O25  1  0.38145732  0.80498960  0.57238678  1
  O  O26  1  0.61854268  0.19501040  0.42761322  1
  O  O27  1  0.26230666  0.11208610  0.26966495  1
  O  O28  1  0.48745133  0.45876435  0.19770716  1
  O  O29  1  0.99157201  0.38767953  0.41609928  1
  O  O30  1  0.14059520  0.74368456  0.27468003  1
  O  O31  1  0.80534473  0.01183423  0.42126891  1
  O  O32  1  0.48718001  0.20900032  0.10806594  1
  O  O33  1  0.85768567  0.55465826  0.08752404  1
  O  O34  1  0.18155016  0.50472424  0.20886216  1
  O  O35  1  0.54574892  0.84090406  0.20521459  1
  O  O36  1  0.90254846  0.88224859  0.28812720  1
  O  O37  1  0.79473774  0.16095794  0.09138964  1
