# generated using pymatgen
data_Li12CoNi3P4(CO7)4
_symmetry_space_group_name_H-M   'P 1'
_cell_length_a   8.35023300
_cell_length_b   6.41612200
_cell_length_c   9.95830210
_cell_angle_alpha   90.00000000
_cell_angle_beta   94.67466618
_cell_angle_gamma   90.00000000
_symmetry_Int_Tables_number   1
_chemical_formula_structural   Li12CoNi3P4(CO7)4
_chemical_formula_sum   'Li12 Co1 Ni3 P4 C4 O28'
_cell_volume   531.75235744
_cell_formula_units_Z   1
loop_
 _symmetry_equiv_pos_site_id
 _symmetry_equiv_pos_as_xyz
  1  'x, y, z'
loop_
 _atom_site_type_symbol
 _atom_site_label
 _atom_site_symmetry_multiplicity
 _atom_site_fract_x
 _atom_site_fract_y
 _atom_site_fract_z
 _atom_site_occupancy
  Li  Li0  1  0.09591500  0.00000000  0.61862900  1
  Li  Li1  1  0.09516000  0.00000000  0.11847600  1
  Li  Li2  1  0.27630100  0.77156500  0.87709400  1
  Li  Li3  1  0.27630100  0.22843500  0.87709400  1
  Li  Li4  1  0.27625100  0.77206100  0.37702300  1
  Li  Li5  1  0.27625100  0.22793900  0.37702300  1
  Li  Li6  1  0.72376700  0.27093400  0.62420600  1
  Li  Li7  1  0.72376700  0.72906600  0.62420600  1
  Li  Li8  1  0.72397800  0.27128200  0.12242900  1
  Li  Li9  1  0.72397800  0.72871800  0.12242900  1
  Li  Li10  1  0.90446200  0.50000000  0.88147400  1
  Li  Li11  1  0.90463500  0.50000000  0.38152300  1
  Co  Co12  1  0.66702100  0.00000000  0.39493400  1
  Ni  Ni13  1  0.33254000  0.50000000  0.60423000  1
  Ni  Ni14  1  0.33252500  0.50000000  0.10359200  1
  Ni  Ni15  1  0.66668100  0.00000000  0.89628400  1
  P  P16  1  0.41402400  0.00000000  0.64071200  1
  P  P17  1  0.41344300  0.00000000  0.13876300  1
  P  P18  1  0.58512900  0.50000000  0.86027000  1
  P  P19  1  0.58510900  0.50000000  0.36017100  1
  C  C20  1  0.03847900  0.50000000  0.64816100  1
  C  C21  1  0.03850900  0.50000000  0.14819500  1
  C  C22  1  0.96127800  0.00000000  0.85175300  1
  C  C23  1  0.96405300  0.00000000  0.35131200  1
  O  O24  1  0.07597900  0.50000000  0.52451800  1
  O  O25  1  0.10915600  0.00000000  0.82131100  1
  O  O26  1  0.07580000  0.50000000  0.02459800  1
  O  O27  1  0.15472200  0.50000000  0.74341400  1
  O  O28  1  0.11174800  0.00000000  0.32100300  1
  O  O29  1  0.15493400  0.50000000  0.24344000  1
  O  O30  1  0.30860000  0.81258600  0.58861000  1
  O  O31  1  0.30860000  0.18741400  0.58861000  1
  O  O32  1  0.30846200  0.81250000  0.08690500  1
  O  O33  1  0.30846200  0.18750000  0.08690500  1
  O  O34  1  0.41729500  0.50000000  0.91437100  1
  O  O35  1  0.43620100  0.00000000  0.79800400  1
  O  O36  1  0.41778800  0.50000000  0.41492600  1
  O  O37  1  0.43420700  0.00000000  0.29650800  1
  O  O38  1  0.56251100  0.50000000  0.70298300  1
  O  O39  1  0.58206900  0.00000000  0.58688200  1
  O  O40  1  0.56252900  0.50000000  0.20335200  1
  O  O41  1  0.58223900  0.00000000  0.08640200  1
  O  O42  1  0.69097400  0.68738600  0.91185100  1
  O  O43  1  0.69097400  0.31261400  0.91185100  1
  O  O44  1  0.69144600  0.31274300  0.41183400  1
  O  O45  1  0.69144600  0.68725700  0.41183400  1
  O  O46  1  0.84482300  0.00000000  0.75649300  1
  O  O47  1  0.89043900  0.50000000  0.67849400  1
  O  O48  1  0.84809000  0.00000000  0.25568000  1
  O  O49  1  0.92373400  0.00000000  0.97536600  1
  O  O50  1  0.89047000  0.50000000  0.17878100  1
  O  O51  1  0.92675000  0.00000000  0.47509000  1
