# generated using pymatgen
data_Li4Ni2OF7
_symmetry_space_group_name_H-M   'P 1'
_cell_length_a   10.31253115
_cell_length_b   5.98891090
_cell_length_c   5.87755424
_cell_angle_alpha   90.00000000
_cell_angle_beta   124.29250424
_cell_angle_gamma   90.00000000
_symmetry_Int_Tables_number   1
_chemical_formula_structural   Li4Ni2OF7
_chemical_formula_sum   'Li8 Ni4 O2 F14'
_cell_volume   299.90261237
_cell_formula_units_Z   2
loop_
 _symmetry_equiv_pos_site_id
 _symmetry_equiv_pos_as_xyz
  1  'x, y, z'
loop_
 _atom_site_type_symbol
 _atom_site_label
 _atom_site_symmetry_multiplicity
 _atom_site_fract_x
 _atom_site_fract_y
 _atom_site_fract_z
 _atom_site_occupancy
  Li  Li0  1  0.38889050  0.50000000  0.14792000  1
  Li  Li1  1  0.61356600  0.50000000  0.86685900  1
  Li  Li2  1  0.00173325  0.50000000  0.99728000  1
  Li  Li3  1  0.98107275  0.50000000  0.47200800  1
  Li  Li4  1  0.88889050  0.00000000  0.14792000  1
  Li  Li5  1  0.11356600  0.00000000  0.86685900  1
  Li  Li6  1  0.50173325  0.00000000  0.99728000  1
  Li  Li7  1  0.48107275  0.00000000  0.47200800  1
  Ni  Ni8  1  0.24907250  0.74432950  0.50794800  1
  Ni  Ni9  1  0.24907250  0.25567050  0.50794800  1
  Ni  Ni10  1  0.74907250  0.24432950  0.50794800  1
  Ni  Ni11  1  0.74907250  0.75567050  0.50794800  1
  O  O12  1  0.26934800  0.50000000  0.74075100  1
  O  O13  1  0.76934800  0.00000000  0.74075100  1
  F  F14  1  0.74815800  0.50000000  0.27179400  1
  F  F15  1  0.75361600  0.50000000  0.74297400  1
  F  F16  1  0.24400325  0.50000000  0.25441900  1
  F  F17  1  0.98678675  0.73204625  0.72951500  1
  F  F18  1  0.98678675  0.26795375  0.72951500  1
  F  F19  1  0.01375400  0.73286900  0.26560400  1
  F  F20  1  0.01375400  0.26713100  0.26560400  1
  F  F21  1  0.24815800  0.00000000  0.27179400  1
  F  F22  1  0.25361600  0.00000000  0.74297400  1
  F  F23  1  0.74400325  0.00000000  0.25441900  1
  F  F24  1  0.48678675  0.23204625  0.72951500  1
  F  F25  1  0.48678675  0.76795375  0.72951500  1
  F  F26  1  0.51375400  0.23286900  0.26560400  1
  F  F27  1  0.51375400  0.76713100  0.26560400  1
