# generated using pymatgen
data_Li4Mn3Ni3(WO8)2
_symmetry_space_group_name_H-M   'P 1'
_cell_length_a   10.40340000
_cell_length_b   5.87923200
_cell_length_c   9.75196826
_cell_angle_alpha   90.00000000
_cell_angle_beta   91.31651886
_cell_angle_gamma   90.00000000
_symmetry_Int_Tables_number   1
_chemical_formula_structural   Li4Mn3Ni3(WO8)2
_chemical_formula_sum   'Li8 Mn6 Ni6 W4 O32'
_cell_volume   596.31195596
_cell_formula_units_Z   2
loop_
 _symmetry_equiv_pos_site_id
 _symmetry_equiv_pos_as_xyz
  1  'x, y, z'
loop_
 _atom_site_type_symbol
 _atom_site_label
 _atom_site_symmetry_multiplicity
 _atom_site_fract_x
 _atom_site_fract_y
 _atom_site_fract_z
 _atom_site_occupancy
  Li  Li0  1  0.65971800  0.00000000  0.09509500  1
  Li  Li1  1  0.99768600  0.00000000  0.01400100  1
  Li  Li2  1  0.50697200  0.50000000  0.50820300  1
  Li  Li3  1  0.83962500  0.50000000  0.58672200  1
  Li  Li4  1  0.15971800  0.50000000  0.09509500  1
  Li  Li5  1  0.49768600  0.50000000  0.01400100  1
  Li  Li6  1  0.00697200  0.00000000  0.50820300  1
  Li  Li7  1  0.33962500  0.00000000  0.58672200  1
  Mn  Mn8  1  0.58733400  0.75224400  0.78454100  1
  Mn  Mn9  1  0.58733400  0.24775600  0.78454100  1
  Mn  Mn10  1  0.67248600  0.50000000  0.28482800  1
  Mn  Mn11  1  0.08733400  0.25224400  0.78454100  1
  Mn  Mn12  1  0.08733400  0.74775600  0.78454100  1
  Mn  Mn13  1  0.17248600  0.00000000  0.28482800  1
  Ni  Ni14  1  0.82904100  0.00000000  0.78665800  1
  Ni  Ni15  1  0.91754500  0.25397100  0.28773600  1
  Ni  Ni16  1  0.91754500  0.74602900  0.28773600  1
  Ni  Ni17  1  0.32904100  0.50000000  0.78665800  1
  Ni  Ni18  1  0.41754500  0.75397100  0.28773600  1
  Ni  Ni19  1  0.41754500  0.24602900  0.28773600  1
  W  W20  1  0.68320600  0.00000000  0.51072700  1
  W  W21  1  0.83356800  0.50000000  0.01799200  1
  W  W22  1  0.18320600  0.50000000  0.51072700  1
  W  W23  1  0.33356800  0.00000000  0.01799200  1
  O  O24  1  0.59545250  0.75279050  0.40813400  1
  O  O25  1  0.52480400  0.00000000  0.65471000  1
  O  O26  1  0.65942400  0.00000000  0.88828500  1
  O  O27  1  0.50182200  0.50000000  0.69727300  1
  O  O28  1  0.50740600  0.50000000  0.19924400  1
  O  O29  1  0.59545250  0.24720950  0.40813400  1
  O  O30  1  0.74642900  0.77617400  0.64263200  1
  O  O31  1  0.74642900  0.22382600  0.64263200  1
  O  O32  1  0.66177200  0.50000000  0.90792700  1
  O  O33  1  0.83384700  0.00000000  0.41043100  1
  O  O34  1  0.74618800  0.28664800  0.15654600  1
  O  O35  1  0.74618800  0.71335200  0.15654600  1
  O  O36  1  0.82893900  0.50000000  0.38695700  1
  O  O37  1  0.89908200  0.25362000  0.91924600  1
  O  O38  1  0.97558900  0.50000000  0.14538300  1
  O  O39  1  0.89908200  0.74638000  0.91924600  1
  O  O40  1  0.09545250  0.25279050  0.40813400  1
  O  O41  1  0.02480400  0.50000000  0.65471000  1
  O  O42  1  0.15942400  0.50000000  0.88828500  1
  O  O43  1  0.00182200  0.00000000  0.69727300  1
  O  O44  1  0.00740600  0.00000000  0.19924400  1
  O  O45  1  0.09545250  0.74720950  0.40813400  1
  O  O46  1  0.24642900  0.27617400  0.64263200  1
  O  O47  1  0.24642900  0.72382600  0.64263200  1
  O  O48  1  0.16177200  0.00000000  0.90792700  1
  O  O49  1  0.33384700  0.50000000  0.41043100  1
  O  O50  1  0.24618800  0.78664800  0.15654600  1
  O  O51  1  0.24618800  0.21335200  0.15654600  1
  O  O52  1  0.32893900  0.00000000  0.38695700  1
  O  O53  1  0.39908200  0.75362000  0.91924600  1
  O  O54  1  0.47558900  0.00000000  0.14538300  1
  O  O55  1  0.39908200  0.24638000  0.91924600  1
