# generated using pymatgen
data_MnTlO3
_symmetry_space_group_name_H-M   'P 1'
_cell_length_a   5.23466635
_cell_length_b   5.23466635
_cell_length_c   17.13875518
_cell_angle_alpha   90.00000000
_cell_angle_beta   90.00000000
_cell_angle_gamma   120.00000000
_symmetry_Int_Tables_number   1
_chemical_formula_structural   MnTlO3
_chemical_formula_sum   'Mn6 Tl6 O18'
_cell_volume   406.71287250
_cell_formula_units_Z   6
loop_
 _symmetry_equiv_pos_site_id
 _symmetry_equiv_pos_as_xyz
  1  'x, y, z'
loop_
 _atom_site_type_symbol
 _atom_site_label
 _atom_site_symmetry_multiplicity
 _atom_site_fract_x
 _atom_site_fract_y
 _atom_site_fract_z
 _atom_site_occupancy
  Mn  Mn0  1  0.33333333  0.66666667  0.00196367  1
  Mn  Mn1  1  0.33333333  0.66666667  0.33136967  1
  Mn  Mn2  1  0.00000000  0.00000000  0.33529700  1
  Mn  Mn3  1  0.00000000  0.00000000  0.66470300  1
  Mn  Mn4  1  0.66666667  0.33333333  0.66863033  1
  Mn  Mn5  1  0.66666667  0.33333333  0.99803633  1
  Tl  Tl6  1  0.00000000  0.00000000  0.12519300  1
  Tl  Tl7  1  0.66666667  0.33333333  0.20814033  1
  Tl  Tl8  1  0.66666667  0.33333333  0.45852633  1
  Tl  Tl9  1  0.33333333  0.66666667  0.54147367  1
  Tl  Tl10  1  0.33333333  0.66666667  0.79185967  1
  Tl  Tl11  1  0.00000000  0.00000000  0.87480700  1
  O  O12  1  0.38800700  0.00301400  0.06256200  1
  O  O13  1  0.61500700  0.61199300  0.06256200  1
  O  O14  1  0.99698600  0.38499300  0.06256200  1
  O  O15  1  0.66968067  0.94834033  0.27077133  1
  O  O16  1  0.05165967  0.72134033  0.27077133  1
  O  O17  1  0.27865967  0.33031933  0.27077133  1
  O  O18  1  0.05467367  0.33634733  0.39589533  1
  O  O19  1  0.28167367  0.94532633  0.39589533  1
  O  O20  1  0.66365267  0.71832633  0.39589533  1
  O  O21  1  0.33634733  0.28167367  0.60410467  1
  O  O22  1  0.71832633  0.05467367  0.60410467  1
  O  O23  1  0.94532633  0.66365267  0.60410467  1
  O  O24  1  0.72134033  0.66968067  0.72922867  1
  O  O25  1  0.94834033  0.27865967  0.72922867  1
  O  O26  1  0.33031933  0.05165967  0.72922867  1
  O  O27  1  0.00301400  0.61500700  0.93743800  1
  O  O28  1  0.38499300  0.38800700  0.93743800  1
  O  O29  1  0.61199300  0.99698600  0.93743800  1
