# generated using pymatgen
data_Ba6Li2Ti7(Sb3O14)3
_symmetry_space_group_name_H-M   'P 1'
_cell_length_a   9.28450800
_cell_length_b   16.03913400
_cell_length_c   11.99199568
_cell_angle_alpha   90.00000000
_cell_angle_beta   90.12530361
_cell_angle_gamma   90.00000000
_symmetry_Int_Tables_number   1
_chemical_formula_structural   Ba6Li2Ti7(Sb3O14)3
_chemical_formula_sum   'Ba12 Li4 Ti14 Sb18 O84'
_cell_volume   1785.78937728
_cell_formula_units_Z   2
loop_
 _symmetry_equiv_pos_site_id
 _symmetry_equiv_pos_as_xyz
  1  'x, y, z'
loop_
 _atom_site_type_symbol
 _atom_site_label
 _atom_site_symmetry_multiplicity
 _atom_site_fract_x
 _atom_site_fract_y
 _atom_site_fract_z
 _atom_site_occupancy
  Ba  Ba0  1  0.59619100  0.00000000  0.24525800  1
  Ba  Ba1  1  0.41037400  0.00000000  0.75202500  1
  Ba  Ba2  1  0.70163650  0.29701450  0.24539400  1
  Ba  Ba3  1  0.79690100  0.20014200  0.75046800  1
  Ba  Ba4  1  0.79690100  0.79985800  0.75046800  1
  Ba  Ba5  1  0.70163650  0.70298550  0.24539400  1
  Ba  Ba6  1  0.09619100  0.50000000  0.24525800  1
  Ba  Ba7  1  0.91037400  0.50000000  0.75202500  1
  Ba  Ba8  1  0.20163650  0.79701450  0.24539400  1
  Ba  Ba9  1  0.29690100  0.70014200  0.75046800  1
  Ba  Ba10  1  0.29690100  0.29985800  0.75046800  1
  Ba  Ba11  1  0.20163650  0.20298550  0.24539400  1
  Li  Li12  1  0.00092900  0.00000000  0.22825600  1
  Li  Li13  1  0.99473400  0.00000000  0.73643100  1
  Li  Li14  1  0.50092900  0.50000000  0.22825600  1
  Li  Li15  1  0.49473400  0.50000000  0.73643100  1
  Ti  Ti16  1  0.74697600  0.00000000  0.91523800  1
  Ti  Ti17  1  0.74415500  0.00000000  0.60099000  1
  Ti  Ti18  1  0.25790700  0.00000000  0.09748400  1
  Ti  Ti19  1  0.12933250  0.87142850  0.59792000  1
  Ti  Ti20  1  0.86646750  0.87367750  0.09181600  1
  Ti  Ti21  1  0.86646750  0.12632250  0.09181600  1
  Ti  Ti22  1  0.12933250  0.12857150  0.59792000  1
  Ti  Ti23  1  0.24697600  0.50000000  0.91523800  1
  Ti  Ti24  1  0.24415500  0.50000000  0.60099000  1
  Ti  Ti25  1  0.75790700  0.50000000  0.09748400  1
  Ti  Ti26  1  0.62933250  0.37142850  0.59792000  1
  Ti  Ti27  1  0.36646750  0.37367750  0.09181600  1
  Ti  Ti28  1  0.36646750  0.62632250  0.09181600  1
  Ti  Ti29  1  0.62933250  0.62857150  0.59792000  1
  Sb  Sb30  1  0.24674500  0.00000000  0.41555800  1
  Sb  Sb31  1  0.50003450  0.83346250  0.99953700  1
  Sb  Sb32  1  0.50019250  0.83335150  0.49962700  1
  Sb  Sb33  1  0.62119750  0.37705050  0.91587000  1
  Sb  Sb34  1  0.87692650  0.87756450  0.41361900  1
  Sb  Sb35  1  0.87692650  0.12243550  0.41361900  1
  Sb  Sb36  1  0.50003450  0.16653750  0.99953700  1
  Sb  Sb37  1  0.50019250  0.16664850  0.49962700  1
  Sb  Sb38  1  0.62119750  0.62294950  0.91587000  1
  Sb  Sb39  1  0.74674500  0.50000000  0.41555800  1
  Sb  Sb40  1  0.00003450  0.33346250  0.99953700  1
  Sb  Sb41  1  0.00019250  0.33335150  0.49962700  1
  Sb  Sb42  1  0.12119750  0.87705050  0.91587000  1
  Sb  Sb43  1  0.37692650  0.37756450  0.41361900  1
  Sb  Sb44  1  0.37692650  0.62243550  0.41361900  1
  Sb  Sb45  1  0.00003450  0.66653750  0.99953700  1
  Sb  Sb46  1  0.00019250  0.66664850  0.49962700  1
  Sb  Sb47  1  0.12119750  0.12294950  0.91587000  1
  O  O48  1  0.79511800  0.00000000  0.07249500  1
  O  O49  1  0.79554600  0.00000000  0.42609900  1
  O  O50  1  0.79137600  0.00000000  0.75168300  1
  O  O51  1  0.60251200  0.91510300  0.60213300  1
  O  O52  1  0.60541200  0.91619900  0.89934300  1
  O  O53  1  0.20347600  0.00000000  0.24977400  1
  O  O54  1  0.67117300  0.84207300  0.10488800  1
  O  O55  1  0.67032100  0.84166700  0.39383600  1
  O  O56  1  0.20163400  0.00000000  0.58040800  1
  O  O57  1  0.20590900  0.00000000  0.92740200  1
  O  O58  1  0.39869500  0.91529000  0.10198400  1
  O  O59  1  0.40312550  0.91462450  0.39358100  1
  O  O60  1  0.33019500  0.84284000  0.89273800  1
  O  O61  1  0.32625250  0.84335250  0.60129300  1
  O  O62  1  0.10190450  0.90074850  0.08054900  1
  O  O63  1  0.10241250  0.89768150  0.42719600  1
  O  O64  1  0.57195600  0.74118200  0.60130100  1
  O  O65  1  0.57536900  0.74501600  0.89261100  1
  O  O66  1  0.59966900  0.39875900  0.74928200  1
  O  O67  1  0.42648000  0.74401200  0.39338200  1
  O  O68  1  0.42518800  0.73990600  0.09729000  1
  O  O69  1  0.90047550  0.90086750  0.57934100  1
  O  O70  1  0.40075300  0.39704700  0.92821400  1
  O  O71  1  0.39953250  0.39857850  0.24740200  1
  O  O72  1  0.57195600  0.25881800  0.60130100  1
  O  O73  1  0.57536900  0.25498400  0.89261100  1
  O  O74  1  0.39953250  0.60142150  0.24740200  1
  O  O75  1  0.42518800  0.26009400  0.09729000  1
  O  O76  1  0.42648000  0.25598800  0.39338200  1
  O  O77  1  0.90047550  0.09913250  0.57934100  1
  O  O78  1  0.40075300  0.60295300  0.92821400  1
  O  O79  1  0.67117300  0.15792700  0.10488800  1
  O  O80  1  0.67032100  0.15833300  0.39383600  1
  O  O81  1  0.60251200  0.08489700  0.60213300  1
  O  O82  1  0.60541200  0.08380100  0.89934300  1
  O  O83  1  0.32625250  0.15664750  0.60129300  1
  O  O84  1  0.33019500  0.15716000  0.89273800  1
  O  O85  1  0.40312550  0.08537550  0.39358100  1
  O  O86  1  0.39869500  0.08471000  0.10198400  1
  O  O87  1  0.59966900  0.60124100  0.74928200  1
  O  O88  1  0.10241250  0.10231850  0.42719600  1
  O  O89  1  0.10190450  0.09925150  0.08054900  1
  O  O90  1  0.29511800  0.50000000  0.07249500  1
  O  O91  1  0.29554600  0.50000000  0.42609900  1
  O  O92  1  0.29137600  0.50000000  0.75168300  1
  O  O93  1  0.10251200  0.41510300  0.60213300  1
  O  O94  1  0.10541200  0.41619900  0.89934300  1
  O  O95  1  0.70347600  0.50000000  0.24977400  1
  O  O96  1  0.17117300  0.34207300  0.10488800  1
  O  O97  1  0.17032100  0.34166700  0.39383600  1
  O  O98  1  0.70163400  0.50000000  0.58040800  1
  O  O99  1  0.70590900  0.50000000  0.92740200  1
  O  O100  1  0.89869500  0.41529000  0.10198400  1
  O  O101  1  0.90312550  0.41462450  0.39358100  1
  O  O102  1  0.83019500  0.34284000  0.89273800  1
  O  O103  1  0.82625250  0.34335250  0.60129300  1
  O  O104  1  0.60190450  0.40074850  0.08054900  1
  O  O105  1  0.60241250  0.39768150  0.42719600  1
  O  O106  1  0.07195600  0.24118200  0.60130100  1
  O  O107  1  0.07536900  0.24501600  0.89261100  1
  O  O108  1  0.09966900  0.89875900  0.74928200  1
  O  O109  1  0.92648000  0.24401200  0.39338200  1
  O  O110  1  0.92518800  0.23990600  0.09729000  1
  O  O111  1  0.40047550  0.40086750  0.57934100  1
  O  O112  1  0.90075300  0.89704700  0.92821400  1
  O  O113  1  0.89953250  0.89857850  0.24740200  1
  O  O114  1  0.07195600  0.75881800  0.60130100  1
  O  O115  1  0.07536900  0.75498400  0.89261100  1
  O  O116  1  0.89953250  0.10142150  0.24740200  1
  O  O117  1  0.92518800  0.76009400  0.09729000  1
  O  O118  1  0.92648000  0.75598800  0.39338200  1
  O  O119  1  0.40047550  0.59913250  0.57934100  1
  O  O120  1  0.90075300  0.10295300  0.92821400  1
  O  O121  1  0.17117300  0.65792700  0.10488800  1
  O  O122  1  0.17032100  0.65833300  0.39383600  1
  O  O123  1  0.10251200  0.58489700  0.60213300  1
  O  O124  1  0.10541200  0.58380100  0.89934300  1
  O  O125  1  0.82625250  0.65664750  0.60129300  1
  O  O126  1  0.83019500  0.65716000  0.89273800  1
  O  O127  1  0.90312550  0.58537550  0.39358100  1
  O  O128  1  0.89869500  0.58471000  0.10198400  1
  O  O129  1  0.09966900  0.10124100  0.74928200  1
  O  O130  1  0.60241250  0.60231850  0.42719600  1
  O  O131  1  0.60190450  0.59925150  0.08054900  1
