# generated using pymatgen
data_Na3Li3Fe2P2(CO7)2
_symmetry_space_group_name_H-M   'P 1'
_cell_length_a   5.19230962
_cell_length_b   6.53750571
_cell_length_c   8.76643027
_cell_angle_alpha   91.09999993
_cell_angle_beta   91.57160196
_cell_angle_gamma   90.51714052
_symmetry_Int_Tables_number   1
_chemical_formula_structural   Na3Li3Fe2P2(CO7)2
_chemical_formula_sum   'Na3 Li3 Fe2 P2 C2 O14'
_cell_volume   297.39397658
_cell_formula_units_Z   1
loop_
 _symmetry_equiv_pos_site_id
 _symmetry_equiv_pos_as_xyz
  1  'x, y, z'
loop_
 _atom_site_type_symbol
 _atom_site_label
 _atom_site_symmetry_multiplicity
 _atom_site_fract_x
 _atom_site_fract_y
 _atom_site_fract_z
 _atom_site_occupancy
  Na  Na0  1  0.23933900  0.27032250  0.08403750  1
  Na  Na1  1  0.74673300  0.99827350  0.25546850  1
  Na  Na2  1  0.75876200  0.74281200  0.91411500  1
  Li  Li3  1  0.77573300  0.46689400  0.28558700  1
  Li  Li4  1  0.22166050  0.52565700  0.72155750  1
  Li  Li5  1  0.23244600  0.97990150  0.72396550  1
  Fe  Fe6  1  0.21476850  0.74520950  0.34997500  1
  Fe  Fe7  1  0.78658200  0.24866600  0.65453300  1
  P  P8  1  0.29999500  0.25255950  0.42405250  1
  P  P9  1  0.71082150  0.74355750  0.58192300  1
  C  C10  1  0.27118450  0.75102850  0.04349800  1
  C  C11  1  0.71925250  0.25950400  0.95200550  1
  O  O12  1  0.70235750  0.27744650  0.09947300  1
  O  O13  1  0.05180100  0.75360450  0.11219850  1
  O  O14  1  0.48168800  0.74567700  0.12646400  1
  O  O15  1  0.22230850  0.05662900  0.32958150  1
  O  O16  1  0.18452950  0.43218200  0.32991150  1
  O  O17  1  0.59974600  0.27192250  0.43322050  1
  O  O18  1  0.81065100  0.72983600  0.41740200  1
  O  O19  1  0.19436700  0.25044200  0.58761000  1
  O  O20  1  0.40887850  0.74654300  0.57685550  1
  O  O21  1  0.81119900  0.56214900  0.67884600  1
  O  O22  1  0.81947200  0.93663100  0.66926500  1
  O  O23  1  0.51391450  0.24436650  0.86393600  1
  O  O24  1  0.94394150  0.25645650  0.88970000  1
  O  O25  1  0.27787350  0.75173000  0.89481750  1
