# generated using pymatgen
data_FeOF
_symmetry_space_group_name_H-M   'P 1'
_cell_length_a   4.80233800
_cell_length_b   3.07515400
_cell_length_c   14.37248104
_cell_angle_alpha   90.00000000
_cell_angle_beta   94.51331673
_cell_angle_gamma   90.00000000
_symmetry_Int_Tables_number   1
_chemical_formula_structural   FeOF
_chemical_formula_sum   'Fe6 O6 F6'
_cell_volume   211.59360061
_cell_formula_units_Z   6
loop_
 _symmetry_equiv_pos_site_id
 _symmetry_equiv_pos_as_xyz
  1  'x, y, z'
loop_
 _atom_site_type_symbol
 _atom_site_label
 _atom_site_symmetry_multiplicity
 _atom_site_fract_x
 _atom_site_fract_y
 _atom_site_fract_z
 _atom_site_occupancy
  Fe  Fe0  1  0.05840400  0.00000000  0.00113200  1
  Fe  Fe1  1  0.00773300  0.00000000  0.33337800  1
  Fe  Fe2  1  0.97357700  0.00000000  0.66531600  1
  Fe  Fe3  1  0.52933000  0.50000000  0.16714200  1
  Fe  Fe4  1  0.49099500  0.50000000  0.49876700  1
  Fe  Fe5  1  0.43453000  0.50000000  0.83418600  1
  O  O6  1  0.19913800  0.50000000  0.93555000  1
  O  O7  1  0.27992300  0.00000000  0.76399600  1
  O  O8  1  0.33020500  0.00000000  0.10505900  1
  O  O9  1  0.29927500  0.00000000  0.43347100  1
  O  O10  1  0.68520000  0.00000000  0.56711300  1
  O  O11  1  0.71924500  0.00000000  0.23512700  1
  F  F12  1  0.20461200  0.50000000  0.27090200  1
  F  F13  1  0.17095600  0.50000000  0.60102200  1
  F  F14  1  0.69054000  0.00000000  0.89627500  1
  F  F15  1  0.81011600  0.50000000  0.39855800  1
  F  F16  1  0.78719600  0.50000000  0.73171500  1
  F  F17  1  0.82902900  0.50000000  0.06129100  1
