# generated using pymatgen
data_Li4Mn3Ni3(SbO8)2
_symmetry_space_group_name_H-M   'P 1'
_cell_length_a   10.27554800
_cell_length_b   5.89009600
_cell_length_c   9.60297819
_cell_angle_alpha   90.00000000
_cell_angle_beta   91.35396935
_cell_angle_gamma   90.00000000
_symmetry_Int_Tables_number   1
_chemical_formula_structural   Li4Mn3Ni3(SbO8)2
_chemical_formula_sum   'Li8 Mn6 Ni6 Sb4 O32'
_cell_volume   581.04803167
_cell_formula_units_Z   2
loop_
 _symmetry_equiv_pos_site_id
 _symmetry_equiv_pos_as_xyz
  1  'x, y, z'
loop_
 _atom_site_type_symbol
 _atom_site_label
 _atom_site_symmetry_multiplicity
 _atom_site_fract_x
 _atom_site_fract_y
 _atom_site_fract_z
 _atom_site_occupancy
  Li  Li0  1  0.66073700  0.00000000  0.89827200  1
  Li  Li1  1  0.99926200  0.00000000  0.98668800  1
  Li  Li2  1  0.50217200  0.50000000  0.49314700  1
  Li  Li3  1  0.82863500  0.50000000  0.40631100  1
  Li  Li4  1  0.16073700  0.50000000  0.89827200  1
  Li  Li5  1  0.49926200  0.50000000  0.98668800  1
  Li  Li6  1  0.00217200  0.00000000  0.49314700  1
  Li  Li7  1  0.32863500  0.00000000  0.40631100  1
  Mn  Mn8  1  0.58590950  0.24614050  0.21384600  1
  Mn  Mn9  1  0.58590950  0.75385950  0.21384600  1
  Mn  Mn10  1  0.67215700  0.50000000  0.71531200  1
  Mn  Mn11  1  0.08590950  0.74614050  0.21384600  1
  Mn  Mn12  1  0.08590950  0.25385950  0.21384600  1
  Mn  Mn13  1  0.17215700  0.00000000  0.71531200  1
  Ni  Ni14  1  0.83040400  0.00000000  0.21374500  1
  Ni  Ni15  1  0.91597100  0.74609200  0.71230900  1
  Ni  Ni16  1  0.91597100  0.25390800  0.71230900  1
  Ni  Ni17  1  0.33040400  0.50000000  0.21374500  1
  Ni  Ni18  1  0.41597100  0.24609200  0.71230900  1
  Ni  Ni19  1  0.41597100  0.75390800  0.71230900  1
  Sb  Sb20  1  0.67158900  0.00000000  0.49053100  1
  Sb  Sb21  1  0.83938500  0.50000000  0.98445700  1
  Sb  Sb22  1  0.17158900  0.50000000  0.49053100  1
  Sb  Sb23  1  0.33938500  0.00000000  0.98445700  1
  O  O24  1  0.59004000  0.25417000  0.59653100  1
  O  O25  1  0.51697400  0.00000000  0.34201100  1
  O  O26  1  0.65552000  0.00000000  0.10990200  1
  O  O27  1  0.50930100  0.50000000  0.30376100  1
  O  O28  1  0.50823000  0.50000000  0.80093100  1
  O  O29  1  0.59004000  0.74583000  0.59653100  1
  O  O30  1  0.73455350  0.22812350  0.34391100  1
  O  O31  1  0.73455350  0.77187650  0.34391100  1
  O  O32  1  0.66881200  0.50000000  0.10026600  1
  O  O33  1  0.84014300  0.00000000  0.58875500  1
  O  O34  1  0.75089400  0.71934200  0.84618800  1
  O  O35  1  0.75089400  0.28065800  0.84618800  1
  O  O36  1  0.82533000  0.50000000  0.60975700  1
  O  O37  1  0.92196350  0.75213350  0.09566800  1
  O  O38  1  0.98079600  0.50000000  0.84736400  1
  O  O39  1  0.92196350  0.24786650  0.09566800  1
  O  O40  1  0.09004000  0.75417000  0.59653100  1
  O  O41  1  0.01697400  0.50000000  0.34201100  1
  O  O42  1  0.15552000  0.50000000  0.10990200  1
  O  O43  1  0.00930100  0.00000000  0.30376100  1
  O  O44  1  0.00823000  0.00000000  0.80093100  1
  O  O45  1  0.09004000  0.24583000  0.59653100  1
  O  O46  1  0.23455350  0.72812350  0.34391100  1
  O  O47  1  0.23455350  0.27187650  0.34391100  1
  O  O48  1  0.16881200  0.00000000  0.10026600  1
  O  O49  1  0.34014300  0.50000000  0.58875500  1
  O  O50  1  0.25089400  0.21934200  0.84618800  1
  O  O51  1  0.25089400  0.78065800  0.84618800  1
  O  O52  1  0.32533000  0.00000000  0.60975700  1
  O  O53  1  0.42196350  0.25213350  0.09566800  1
  O  O54  1  0.48079600  0.00000000  0.84736400  1
  O  O55  1  0.42196350  0.74786650  0.09566800  1
