# generated using pymatgen
data_V5CrO12
_symmetry_space_group_name_H-M   'P 1'
_cell_length_a   10.16550800
_cell_length_b   9.22418400
_cell_length_c   5.68672259
_cell_angle_alpha   90.00000000
_cell_angle_beta   110.26704731
_cell_angle_gamma   90.00000000
_symmetry_Int_Tables_number   1
_chemical_formula_structural   V5CrO12
_chemical_formula_sum   'V10 Cr2 O24'
_cell_volume   500.22202765
_cell_formula_units_Z   2
loop_
 _symmetry_equiv_pos_site_id
 _symmetry_equiv_pos_as_xyz
  1  'x, y, z'
loop_
 _atom_site_type_symbol
 _atom_site_label
 _atom_site_symmetry_multiplicity
 _atom_site_fract_x
 _atom_site_fract_y
 _atom_site_fract_z
 _atom_site_occupancy
  V  V0  1  0.00000000  0.91792400  0.00000000  1
  V  V1  1  0.20095500  0.40607000  0.49888900  1
  V  V2  1  0.20591900  0.60263600  0.00931700  1
  V  V3  1  0.79904500  0.40607000  0.50111100  1
  V  V4  1  0.79408100  0.60263600  0.99068300  1
  V  V5  1  0.50000000  0.41792400  0.00000000  1
  V  V6  1  0.70095500  0.90607000  0.49888900  1
  V  V7  1  0.70591900  0.10263600  0.00931700  1
  V  V8  1  0.29904500  0.90607000  0.50111100  1
  V  V9  1  0.29408100  0.10263600  0.99068300  1
  Cr  Cr10  1  0.00000000  0.08388400  0.50000000  1
  Cr  Cr11  1  0.50000000  0.58388400  0.50000000  1
  O  O12  1  0.38555900  0.42567100  0.60846400  1
  O  O13  1  0.14492800  0.22830000  0.49320800  1
  O  O14  1  0.39525300  0.57176500  0.12352200  1
  O  O15  1  0.14152750  0.51140250  0.69403400  1
  O  O16  1  0.85507200  0.22830000  0.50679200  1
  O  O17  1  0.13780550  0.47889050  0.19723600  1
  O  O18  1  0.85847250  0.51140250  0.30596600  1
  O  O19  1  0.13397650  0.77436150  0.96373100  1
  O  O20  1  0.86219450  0.47889050  0.80276400  1
  O  O21  1  0.61444100  0.42567100  0.39153600  1
  O  O22  1  0.86602350  0.77436150  0.03626900  1
  O  O23  1  0.60474700  0.57176500  0.87647800  1
  O  O24  1  0.88555900  0.92567100  0.60846400  1
  O  O25  1  0.64492800  0.72830000  0.49320800  1
  O  O26  1  0.89525300  0.07176500  0.12352200  1
  O  O27  1  0.64152750  0.01140250  0.69403400  1
  O  O28  1  0.35507200  0.72830000  0.50679200  1
  O  O29  1  0.63780550  0.97889050  0.19723600  1
  O  O30  1  0.35847250  0.01140250  0.30596600  1
  O  O31  1  0.63397650  0.27436150  0.96373100  1
  O  O32  1  0.36219450  0.97889050  0.80276400  1
  O  O33  1  0.11444100  0.92567100  0.39153600  1
  O  O34  1  0.36602350  0.27436150  0.03626900  1
  O  O35  1  0.10474700  0.07176500  0.87647800  1
