# generated using pymatgen
data_V3CrSb2(PO4)6
_symmetry_space_group_name_H-M   'P 1'
_cell_length_a   8.71145393
_cell_length_b   8.71145393
_cell_length_c   21.91310469
_cell_angle_alpha   90.00000000
_cell_angle_beta   90.00000000
_cell_angle_gamma   120.00000000
_symmetry_Int_Tables_number   1
_chemical_formula_structural   V3CrSb2(PO4)6
_chemical_formula_sum   'V9 Cr3 Sb6 P18 O72'
_cell_volume   1440.17687797
_cell_formula_units_Z   3
loop_
 _symmetry_equiv_pos_site_id
 _symmetry_equiv_pos_as_xyz
  1  'x, y, z'
loop_
 _atom_site_type_symbol
 _atom_site_label
 _atom_site_symmetry_multiplicity
 _atom_site_fract_x
 _atom_site_fract_y
 _atom_site_fract_z
 _atom_site_occupancy
  V  V0  1  0.33333333  0.66666667  0.31366567  1
  V  V1  1  0.66666667  0.33333333  0.18696733  1
  V  V2  1  0.33333333  0.66666667  0.02036767  1
  V  V3  1  0.00000000  0.00000000  0.64699900  1
  V  V4  1  0.33333333  0.66666667  0.52030067  1
  V  V5  1  0.00000000  0.00000000  0.35370100  1
  V  V6  1  0.66666667  0.33333333  0.98033233  1
  V  V7  1  0.00000000  0.00000000  0.85363400  1
  V  V8  1  0.66666667  0.33333333  0.68703433  1
  Cr  Cr9  1  0.00000000  0.00000000  0.14582700  1
  Cr  Cr10  1  0.66666667  0.33333333  0.47916033  1
  Cr  Cr11  1  0.33333333  0.66666667  0.81249367  1
  Sb  Sb12  1  0.66666667  0.33333333  0.33289633  1
  Sb  Sb13  1  0.33333333  0.66666667  0.16833667  1
  Sb  Sb14  1  0.33333333  0.66666667  0.66622967  1
  Sb  Sb15  1  0.00000000  0.00000000  0.50167000  1
  Sb  Sb16  1  0.00000000  0.00000000  0.99956300  1
  Sb  Sb17  1  0.66666667  0.33333333  0.83500333  1
  P  P18  1  0.71260100  0.71257000  0.24962600  1
  P  P19  1  0.28743000  0.00003100  0.24962600  1
  P  P20  1  0.99996900  0.28739900  0.24962600  1
  P  P21  1  0.66749533  0.04331767  0.08376867  1
  P  P22  1  0.37582233  0.33250467  0.08376867  1
  P  P23  1  0.95668233  0.62417767  0.08376867  1
  P  P24  1  0.37926767  0.04590333  0.58295933  1
  P  P25  1  0.95409667  0.33336433  0.58295933  1
  P  P26  1  0.66663567  0.62073233  0.58295933  1
  P  P27  1  0.33416200  0.37665100  0.41710200  1
  P  P28  1  0.04248900  0.66583800  0.41710200  1
  P  P29  1  0.62334900  0.95751100  0.41710200  1
  P  P30  1  0.04593433  0.37923667  0.91629267  1
  P  P31  1  0.62076333  0.66669767  0.91629267  1
  P  P32  1  0.33330233  0.95406567  0.91629267  1
  P  P33  1  0.00082867  0.70998433  0.75043533  1
  P  P34  1  0.70915567  0.99917133  0.75043533  1
  P  P35  1  0.29001567  0.29084433  0.75043533  1
  O  O36  1  0.19886867  0.00688933  0.30842833  1
  O  O37  1  0.99311067  0.19197933  0.30842833  1
  O  O38  1  0.80802067  0.80113133  0.30842833  1
  O  O39  1  0.68779900  0.52056000  0.25161500  1
  O  O40  1  0.80113833  0.80931667  0.19089967  1
  O  O41  1  0.51964533  0.68796867  0.24801967  1
  O  O42  1  0.47944000  0.16723900  0.25161500  1
  O  O43  1  0.31203133  0.83167667  0.24801967  1
  O  O44  1  0.65959700  0.13300000  0.14216200  1
  O  O45  1  0.16832333  0.48035467  0.24801967  1
  O  O46  1  0.83654233  0.02090967  0.08192767  1
  O  O47  1  0.47340300  0.34040300  0.14216200  1
  O  O48  1  0.19068333  0.99182167  0.19089967  1
  O  O49  1  0.83276100  0.31220100  0.25161500  1
  O  O50  1  0.50025167  0.85207533  0.08502233  1
  O  O51  1  0.00817833  0.19886167  0.19089967  1
  O  O52  1  0.35182367  0.49974833  0.08502233  1
  O  O53  1  0.18436733  0.16345767  0.08192767  1
  O  O54  1  0.14792467  0.64817633  0.08502233  1
  O  O55  1  0.86700000  0.52659700  0.14216200  1
  O  O56  1  0.97909033  0.81563267  0.08192767  1
  O  O57  1  0.85971133  0.53522867  0.02473767  1
  O  O58  1  0.67551733  0.14028867  0.02473767  1
  O  O59  1  0.46477133  0.32448267  0.02473767  1
  O  O60  1  0.86553533  0.34022267  0.64176167  1
  O  O61  1  0.65977733  0.52531267  0.64176167  1
  O  O62  1  0.47468733  0.13446467  0.64176167  1
  O  O63  1  0.35446567  0.85389333  0.58494833  1
  O  O64  1  0.46780500  0.14265000  0.52423300  1
  O  O65  1  0.18631200  0.02130200  0.58135300  1
  O  O66  1  0.14610667  0.50057233  0.58494833  1
  O  O67  1  0.97869800  0.16501000  0.58135300  1
  O  O68  1  0.32626367  0.46633333  0.47549533  1
  O  O69  1  0.83499000  0.81368800  0.58135300  1
  O  O70  1  0.50320900  0.35424300  0.41526100  1
  O  O71  1  0.14006967  0.67373633  0.47549533  1
  O  O72  1  0.85735000  0.32515500  0.52423300  1
  O  O73  1  0.49942767  0.64553433  0.58494833  1
  O  O74  1  0.16691833  0.18540867  0.41835567  1
  O  O75  1  0.67484500  0.53219500  0.52423300  1
  O  O76  1  0.01849033  0.83308167  0.41835567  1
  O  O77  1  0.85103400  0.49679100  0.41526100  1
  O  O78  1  0.81459133  0.98150967  0.41835567  1
  O  O79  1  0.53366667  0.85993033  0.47549533  1
  O  O80  1  0.64575700  0.14896600  0.41526100  1
  O  O81  1  0.52637800  0.86856200  0.35807100  1
  O  O82  1  0.34218400  0.47362200  0.35807100  1
  O  O83  1  0.13143800  0.65781600  0.35807100  1
  O  O84  1  0.53220200  0.67355600  0.97509500  1
  O  O85  1  0.32644400  0.85864600  0.97509500  1
  O  O86  1  0.14135400  0.46779800  0.97509500  1
  O  O87  1  0.02113233  0.18722667  0.91828167  1
  O  O88  1  0.13447167  0.47598333  0.85756633  1
  O  O89  1  0.85297867  0.35463533  0.91468633  1
  O  O90  1  0.81277333  0.83390567  0.91828167  1
  O  O91  1  0.64536467  0.49834333  0.91468633  1
  O  O92  1  0.99293033  0.79966667  0.80882867  1
  O  O93  1  0.50165667  0.14702133  0.91468633  1
  O  O94  1  0.16987567  0.68757633  0.74859433  1
  O  O95  1  0.80673633  0.00706967  0.80882867  1
  O  O96  1  0.52401667  0.65848833  0.85756633  1
  O  O97  1  0.16609433  0.97886767  0.91828167  1
  O  O98  1  0.83358500  0.51874200  0.75168900  1
  O  O99  1  0.34151167  0.86552833  0.85756633  1
  O  O100  1  0.68515700  0.16641500  0.75168900  1
  O  O101  1  0.51770067  0.83012433  0.74859433  1
  O  O102  1  0.48125800  0.31484300  0.75168900  1
  O  O103  1  0.20033333  0.19326367  0.80882867  1
  O  O104  1  0.31242367  0.48229933  0.74859433  1
  O  O105  1  0.19304467  0.20189533  0.69140433  1
  O  O106  1  0.00885067  0.80695533  0.69140433  1
  O  O107  1  0.79810467  0.99114933  0.69140433  1
