# generated using pymatgen
data_LiCoNiO4
_symmetry_space_group_name_H-M   'P 1'
_cell_length_a   5.69608400
_cell_length_b   5.71217400
_cell_length_c   8.03328600
_cell_angle_alpha   90.00000000
_cell_angle_beta   90.00000000
_cell_angle_gamma   90.00000000
_symmetry_Int_Tables_number   1
_chemical_formula_structural   LiCoNiO4
_chemical_formula_sum   'Li4 Co4 Ni4 O16'
_cell_volume   261.37921076
_cell_formula_units_Z   4
loop_
 _symmetry_equiv_pos_site_id
 _symmetry_equiv_pos_as_xyz
  1  'x, y, z'
loop_
 _atom_site_type_symbol
 _atom_site_label
 _atom_site_symmetry_multiplicity
 _atom_site_fract_x
 _atom_site_fract_y
 _atom_site_fract_z
 _atom_site_occupancy
  Li  Li0  1  0.50000000  0.75000000  0.37918500  1
  Li  Li1  1  0.00000000  0.75000000  0.12081500  1
  Li  Li2  1  0.00000000  0.25000000  0.87918500  1
  Li  Li3  1  0.50000000  0.25000000  0.62081500  1
  Co  Co4  1  0.50000000  0.00000000  0.00000000  1
  Co  Co5  1  0.00000000  0.00000000  0.50000000  1
  Co  Co6  1  0.00000000  0.50000000  0.50000000  1
  Co  Co7  1  0.50000000  0.50000000  0.00000000  1
  Ni  Ni8  1  0.25000000  0.25000000  0.25000000  1
  Ni  Ni9  1  0.75000000  0.25000000  0.25000000  1
  Ni  Ni10  1  0.75000000  0.75000000  0.75000000  1
  Ni  Ni11  1  0.25000000  0.75000000  0.75000000  1
  O  O12  1  0.27658200  0.25000000  0.01551500  1
  O  O13  1  0.50000000  0.02973100  0.23777000  1
  O  O14  1  0.50000000  0.47026900  0.23777000  1
  O  O15  1  0.72341800  0.25000000  0.01551500  1
  O  O16  1  0.77658200  0.25000000  0.48448500  1
  O  O17  1  0.00000000  0.47026900  0.26223000  1
  O  O18  1  0.00000000  0.02973100  0.26223000  1
  O  O19  1  0.22341800  0.25000000  0.48448500  1
  O  O20  1  0.77658200  0.75000000  0.51551500  1
  O  O21  1  0.00000000  0.52973100  0.73777000  1
  O  O22  1  0.00000000  0.97026900  0.73777000  1
  O  O23  1  0.22341800  0.75000000  0.51551500  1
  O  O24  1  0.27658200  0.75000000  0.98448500  1
  O  O25  1  0.50000000  0.97026900  0.76223000  1
  O  O26  1  0.50000000  0.52973100  0.76223000  1
  O  O27  1  0.72341800  0.75000000  0.98448500  1
