# generated using pymatgen
data_Fe4O7F
_symmetry_space_group_name_H-M   'P 1'
_cell_length_a   18.36899400
_cell_length_b   6.04909000
_cell_length_c   4.59238313
_cell_angle_alpha   90.00000000
_cell_angle_beta   91.71625433
_cell_angle_gamma   90.00000000
_symmetry_Int_Tables_number   1
_chemical_formula_structural   Fe4O7F
_chemical_formula_sum   'Fe16 O28 F4'
_cell_volume   510.05694380
_cell_formula_units_Z   4
loop_
 _symmetry_equiv_pos_site_id
 _symmetry_equiv_pos_as_xyz
  1  'x, y, z'
loop_
 _atom_site_type_symbol
 _atom_site_label
 _atom_site_symmetry_multiplicity
 _atom_site_fract_x
 _atom_site_fract_y
 _atom_site_fract_z
 _atom_site_occupancy
  Fe  Fe0  1  0.87287900  0.00000000  0.50592800  1
  Fe  Fe1  1  0.62827300  0.00000000  0.48639000  1
  Fe  Fe2  1  0.62454500  0.50000000  0.50143100  1
  Fe  Fe3  1  0.88092500  0.50000000  0.47980500  1
  Fe  Fe4  1  0.74718000  0.24578400  0.00671200  1
  Fe  Fe5  1  0.99904500  0.75976800  0.00845400  1
  Fe  Fe6  1  0.74718000  0.75421600  0.00671200  1
  Fe  Fe7  1  0.99904500  0.24023200  0.00845400  1
  Fe  Fe8  1  0.37287900  0.50000000  0.50592800  1
  Fe  Fe9  1  0.12827300  0.50000000  0.48639000  1
  Fe  Fe10  1  0.12454500  0.00000000  0.50143100  1
  Fe  Fe11  1  0.38092500  0.00000000  0.47980500  1
  Fe  Fe12  1  0.24718000  0.74578400  0.00671200  1
  Fe  Fe13  1  0.49904500  0.25976800  0.00845400  1
  Fe  Fe14  1  0.24718000  0.25421600  0.00671200  1
  Fe  Fe15  1  0.49904500  0.74023200  0.00845400  1
  O  O16  1  0.94952100  0.00000000  0.20077000  1
  O  O17  1  0.95539000  0.50000000  0.18209500  1
  O  O18  1  0.69959600  0.00000000  0.19321400  1
  O  O19  1  0.70205400  0.50000000  0.19696900  1
  O  O20  1  0.82643800  0.25339600  0.30902900  1
  O  O21  1  0.57710350  0.74930250  0.30672100  1
  O  O22  1  0.82643800  0.74660400  0.30902900  1
  O  O23  1  0.57710350  0.25069750  0.30672100  1
  O  O24  1  0.67304450  0.74728650  0.69149700  1
  O  O25  1  0.67304450  0.25271350  0.69149700  1
  O  O26  1  0.92372900  0.74881300  0.69406200  1
  O  O27  1  0.92372900  0.25118700  0.69406200  1
  O  O28  1  0.54910600  0.50000000  0.80597600  1
  O  O29  1  0.79583900  0.00000000  0.80896000  1
  O  O30  1  0.44952100  0.50000000  0.20077000  1
  O  O31  1  0.45539000  0.00000000  0.18209500  1
  O  O32  1  0.19959600  0.50000000  0.19321400  1
  O  O33  1  0.20205400  0.00000000  0.19696900  1
  O  O34  1  0.32643800  0.75339600  0.30902900  1
  O  O35  1  0.07710350  0.24930250  0.30672100  1
  O  O36  1  0.32643800  0.24660400  0.30902900  1
  O  O37  1  0.07710350  0.75069750  0.30672100  1
  O  O38  1  0.17304450  0.24728650  0.69149700  1
  O  O39  1  0.17304450  0.75271350  0.69149700  1
  O  O40  1  0.42372900  0.24881300  0.69406200  1
  O  O41  1  0.42372900  0.75118700  0.69406200  1
  O  O42  1  0.04910600  0.00000000  0.80597600  1
  O  O43  1  0.29583900  0.50000000  0.80896000  1
  F  F44  1  0.55112700  0.00000000  0.79778200  1
  F  F45  1  0.80042500  0.50000000  0.80821200  1
  F  F46  1  0.05112700  0.50000000  0.79778200  1
  F  F47  1  0.30042500  0.00000000  0.80821200  1
