# generated using pymatgen
data_LiMn2(BO3)2
_symmetry_space_group_name_H-M   'P 1'
_cell_length_a   5.26299916
_cell_length_b   5.86225185
_cell_length_c   9.22567602
_cell_angle_alpha   105.32260798
_cell_angle_beta   91.90753474
_cell_angle_gamma   111.67093945
_symmetry_Int_Tables_number   1
_chemical_formula_structural   LiMn2(BO3)2
_chemical_formula_sum   'Li2 Mn4 B4 O12'
_cell_volume   252.38459795
_cell_formula_units_Z   2
loop_
 _symmetry_equiv_pos_site_id
 _symmetry_equiv_pos_as_xyz
  1  'x, y, z'
loop_
 _atom_site_type_symbol
 _atom_site_label
 _atom_site_symmetry_multiplicity
 _atom_site_fract_x
 _atom_site_fract_y
 _atom_site_fract_z
 _atom_site_occupancy
  Li  Li0  1  0.25374200  0.47733700  0.18859700  1
  Li  Li1  1  0.74625800  0.52266300  0.81140300  1
  Mn  Mn2  1  0.76801100  0.35380400  0.39609100  1
  Mn  Mn3  1  0.27224100  0.87694700  0.87650000  1
  Mn  Mn4  1  0.72775900  0.12305300  0.12350000  1
  Mn  Mn5  1  0.23198900  0.64619600  0.60390900  1
  B  B6  1  0.77493000  0.68426800  0.05984100  1
  B  B7  1  0.27134700  0.20252300  0.53207400  1
  B  B8  1  0.72865300  0.79747700  0.46792600  1
  B  B9  1  0.22507000  0.31573200  0.94015900  1
  O  O10  1  0.56068700  0.75789100  0.07681100  1
  O  O11  1  0.10241900  0.31168200  0.56345200  1
  O  O12  1  0.38576700  0.31640900  0.40189300  1
  O  O13  1  0.87106000  0.49886600  0.18247300  1
  O  O14  1  0.29905500  0.97467200  0.63799800  1
  O  O15  1  0.12313200  0.22764900  0.07349400  1
  O  O16  1  0.87686800  0.77235100  0.92650600  1
  O  O17  1  0.70094500  0.02532800  0.36200200  1
  O  O18  1  0.12894000  0.50113400  0.81752700  1
  O  O19  1  0.61423300  0.68359100  0.59810700  1
  O  O20  1  0.89758100  0.68831800  0.43654800  1
  O  O21  1  0.43931300  0.24210900  0.92318900  1
