# generated using pymatgen
data_V4OF11
_symmetry_space_group_name_H-M   'P 1'
_cell_length_a   9.52684958
_cell_length_b   5.28513500
_cell_length_c   9.03157888
_cell_angle_alpha   90.00000000
_cell_angle_beta   107.65142989
_cell_angle_gamma   90.00000000
_symmetry_Int_Tables_number   1
_chemical_formula_structural   V4OF11
_chemical_formula_sum   'V8 O2 F22'
_cell_volume   433.33622917
_cell_formula_units_Z   2
loop_
 _symmetry_equiv_pos_site_id
 _symmetry_equiv_pos_as_xyz
  1  'x, y, z'
loop_
 _atom_site_type_symbol
 _atom_site_label
 _atom_site_symmetry_multiplicity
 _atom_site_fract_x
 _atom_site_fract_y
 _atom_site_fract_z
 _atom_site_occupancy
  V  V0  1  0.38232100  0.36750800  0.61763600  1
  V  V1  1  0.12620800  0.37451500  0.87352500  1
  V  V2  1  0.37379200  0.87451500  0.12647500  1
  V  V3  1  0.61767900  0.36750800  0.38236400  1
  V  V4  1  0.88232100  0.86750800  0.61763600  1
  V  V5  1  0.62620800  0.87451500  0.87352500  1
  V  V6  1  0.87379200  0.37451500  0.12647500  1
  V  V7  1  0.11767900  0.86750800  0.38236400  1
  O  O8  1  0.50000000  0.29941700  0.50000000  1
  O  O9  1  0.00000000  0.79941700  0.50000000  1
  F  F10  1  0.25083200  0.07296300  0.95054600  1
  F  F11  1  0.25126200  0.07216400  0.55084400  1
  F  F12  1  0.25339650  0.47248650  0.74570900  1
  F  F13  1  0.24873800  0.57216400  0.44915600  1
  F  F14  1  0.24916800  0.57296300  0.04945400  1
  F  F15  1  0.49888350  0.67779050  0.70007600  1
  F  F16  1  0.50111650  0.67779050  0.29992400  1
  F  F17  1  0.50000000  0.77361700  0.00000000  1
  F  F18  1  0.24660350  0.97248650  0.25429100  1
  F  F19  1  0.50073500  0.17605600  0.20009900  1
  F  F20  1  0.49926500  0.17605600  0.79990100  1
  F  F21  1  0.75083200  0.57296300  0.95054600  1
  F  F22  1  0.75126200  0.57216400  0.55084400  1
  F  F23  1  0.75339650  0.97248650  0.74570900  1
  F  F24  1  0.74873800  0.07216400  0.44915600  1
  F  F25  1  0.74916800  0.07296300  0.04945400  1
  F  F26  1  0.99888350  0.17779050  0.70007600  1
  F  F27  1  0.00111650  0.17779050  0.29992400  1
  F  F28  1  0.00000000  0.27361700  0.00000000  1
  F  F29  1  0.74660350  0.47248650  0.25429100  1
  F  F30  1  0.00073500  0.67605600  0.20009900  1
  F  F31  1  0.99926500  0.67605600  0.79990100  1
