# generated using pymatgen
data_Fe4OF7
_symmetry_space_group_name_H-M   'P 1'
_cell_length_a   6.82747800
_cell_length_b   6.90241000
_cell_length_c   6.36789500
_cell_angle_alpha   90.00000000
_cell_angle_beta   90.00000000
_cell_angle_gamma   90.00000000
_symmetry_Int_Tables_number   1
_chemical_formula_structural   Fe4OF7
_chemical_formula_sum   'Fe8 O2 F14'
_cell_volume   300.09375359
_cell_formula_units_Z   2
loop_
 _symmetry_equiv_pos_site_id
 _symmetry_equiv_pos_as_xyz
  1  'x, y, z'
loop_
 _atom_site_type_symbol
 _atom_site_label
 _atom_site_symmetry_multiplicity
 _atom_site_fract_x
 _atom_site_fract_y
 _atom_site_fract_z
 _atom_site_occupancy
  Fe  Fe0  1  0.00919500  0.00000000  0.73047000  1
  Fe  Fe1  1  0.00919500  0.00000000  0.26953000  1
  Fe  Fe2  1  0.48024900  0.00000000  0.50000000  1
  Fe  Fe3  1  0.50653500  0.00000000  0.00000000  1
  Fe  Fe4  1  0.50919500  0.50000000  0.73047000  1
  Fe  Fe5  1  0.50919500  0.50000000  0.26953000  1
  Fe  Fe6  1  0.98024900  0.50000000  0.50000000  1
  Fe  Fe7  1  0.00653500  0.50000000  0.00000000  1
  O  O8  1  0.19462600  0.00000000  0.50000000  1
  O  O9  1  0.69462600  0.50000000  0.50000000  1
  F  F10  1  0.19916700  0.00000000  0.00000000  1
  F  F11  1  0.50081000  0.20683300  0.75554700  1
  F  F12  1  0.50081000  0.20683300  0.24445300  1
  F  F13  1  0.50081000  0.79316700  0.75554700  1
  F  F14  1  0.50081000  0.79316700  0.24445300  1
  F  F15  1  0.78520200  0.00000000  0.50000000  1
  F  F16  1  0.81259300  0.00000000  0.00000000  1
  F  F17  1  0.69916700  0.50000000  0.00000000  1
  F  F18  1  0.00081000  0.70683300  0.75554700  1
  F  F19  1  0.00081000  0.70683300  0.24445300  1
  F  F20  1  0.00081000  0.29316700  0.75554700  1
  F  F21  1  0.00081000  0.29316700  0.24445300  1
  F  F22  1  0.28520200  0.50000000  0.50000000  1
  F  F23  1  0.31259300  0.50000000  0.00000000  1
