# generated using pymatgen
data_Li2Cr(Si2O5)3
_symmetry_space_group_name_H-M   'P 1'
_cell_length_a   7.78906600
_cell_length_b   9.93821000
_cell_length_c   14.80785000
_cell_angle_alpha   90.00000000
_cell_angle_beta   90.00000000
_cell_angle_gamma   90.00000000
_symmetry_Int_Tables_number   1
_chemical_formula_structural   Li2Cr(Si2O5)3
_chemical_formula_sum   'Li8 Cr4 Si24 O60'
_cell_volume   1146.26639304
_cell_formula_units_Z   4
loop_
 _symmetry_equiv_pos_site_id
 _symmetry_equiv_pos_as_xyz
  1  'x, y, z'
loop_
 _atom_site_type_symbol
 _atom_site_label
 _atom_site_symmetry_multiplicity
 _atom_site_fract_x
 _atom_site_fract_y
 _atom_site_fract_z
 _atom_site_occupancy
  Li  Li0  1  0.75000000  0.75000000  0.00585200  1
  Li  Li1  1  0.25000000  0.75000000  0.00585200  1
  Li  Li2  1  0.25000000  0.25000000  0.99414800  1
  Li  Li3  1  0.75000000  0.25000000  0.99414800  1
  Li  Li4  1  0.25000000  0.25000000  0.50585200  1
  Li  Li5  1  0.75000000  0.25000000  0.50585200  1
  Li  Li6  1  0.75000000  0.75000000  0.49414800  1
  Li  Li7  1  0.25000000  0.75000000  0.49414800  1
  Cr  Cr8  1  0.00000000  0.50000000  0.00000000  1
  Cr  Cr9  1  0.50000000  0.00000000  0.00000000  1
  Cr  Cr10  1  0.50000000  0.00000000  0.50000000  1
  Cr  Cr11  1  0.00000000  0.50000000  0.50000000  1
  Si  Si12  1  0.50000000  0.27328950  0.84816550  1
  Si  Si13  1  0.00000000  0.77328950  0.15183450  1
  Si  Si14  1  0.30750550  0.46274450  0.14734450  1
  Si  Si15  1  0.69249450  0.46274450  0.14734450  1
  Si  Si16  1  0.69249450  0.46274450  0.35265550  1
  Si  Si17  1  0.30750550  0.46274450  0.35265550  1
  Si  Si18  1  0.30750550  0.53725550  0.85265550  1
  Si  Si19  1  0.69249450  0.53725550  0.85265550  1
  Si  Si20  1  0.30750550  0.53725550  0.64734450  1
  Si  Si21  1  0.69249450  0.53725550  0.64734450  1
  Si  Si22  1  0.50000000  0.72671050  0.15183450  1
  Si  Si23  1  0.00000000  0.22671050  0.84816550  1
  Si  Si24  1  0.00000000  0.77328950  0.34816550  1
  Si  Si25  1  0.50000000  0.27328950  0.65183450  1
  Si  Si26  1  0.80750550  0.96274450  0.64734450  1
  Si  Si27  1  0.19249450  0.96274450  0.64734450  1
  Si  Si28  1  0.19249450  0.96274450  0.85265550  1
  Si  Si29  1  0.80750550  0.96274450  0.85265550  1
  Si  Si30  1  0.80750550  0.03725550  0.35265550  1
  Si  Si31  1  0.19249450  0.03725550  0.35265550  1
  Si  Si32  1  0.80750550  0.03725550  0.14734450  1
  Si  Si33  1  0.19249450  0.03725550  0.14734450  1
  Si  Si34  1  0.00000000  0.22671050  0.65183450  1
  Si  Si35  1  0.50000000  0.72671050  0.34816550  1
  O  O36  1  0.00000000  0.29944300  0.75000000  1
  O  O37  1  0.00000000  0.32921100  0.93228900  1
  O  O38  1  0.50000000  0.82921100  0.06771100  1
  O  O39  1  0.33229200  0.37493200  0.85695400  1
  O  O40  1  0.66770800  0.37493200  0.85695400  1
  O  O41  1  0.50000000  0.39653900  0.12948900  1
  O  O42  1  0.66770800  0.37493200  0.64304600  1
  O  O43  1  0.33229200  0.37493200  0.64304600  1
  O  O44  1  0.50000000  0.39653900  0.37051100  1
  O  O45  1  0.67833150  0.91358650  0.92896750  1
  O  O46  1  0.32166850  0.91358650  0.92896750  1
  O  O47  1  0.17833150  0.41358650  0.07103250  1
  O  O48  1  0.82166850  0.41358650  0.07103250  1
  O  O49  1  0.75916450  0.42411250  0.25000000  1
  O  O50  1  0.24083550  0.42411250  0.25000000  1
  O  O51  1  0.24083550  0.57588750  0.75000000  1
  O  O52  1  0.75916450  0.57588750  0.75000000  1
  O  O53  1  0.67833150  0.08641350  0.07103250  1
  O  O54  1  0.32166850  0.08641350  0.07103250  1
  O  O55  1  0.82166850  0.58641350  0.92896750  1
  O  O56  1  0.17833150  0.58641350  0.92896750  1
  O  O57  1  0.50000000  0.60346100  0.87051100  1
  O  O58  1  0.33229200  0.62506800  0.14304600  1
  O  O59  1  0.66770800  0.62506800  0.14304600  1
  O  O60  1  0.50000000  0.60346100  0.62948900  1
  O  O61  1  0.33229200  0.62506800  0.35695400  1
  O  O62  1  0.66770800  0.62506800  0.35695400  1
  O  O63  1  0.00000000  0.67078900  0.06771100  1
  O  O64  1  0.50000000  0.17078900  0.93228900  1
  O  O65  1  0.00000000  0.70055700  0.25000000  1
  O  O66  1  0.50000000  0.79944300  0.25000000  1
  O  O67  1  0.50000000  0.82921100  0.43228900  1
  O  O68  1  0.00000000  0.32921100  0.56771100  1
  O  O69  1  0.83229200  0.87493200  0.35695400  1
  O  O70  1  0.16770800  0.87493200  0.35695400  1
  O  O71  1  0.00000000  0.89653900  0.62948900  1
  O  O72  1  0.16770800  0.87493200  0.14304600  1
  O  O73  1  0.83229200  0.87493200  0.14304600  1
  O  O74  1  0.00000000  0.89653900  0.87051100  1
  O  O75  1  0.17833150  0.41358650  0.42896750  1
  O  O76  1  0.82166850  0.41358650  0.42896750  1
  O  O77  1  0.67833150  0.91358650  0.57103250  1
  O  O78  1  0.32166850  0.91358650  0.57103250  1
  O  O79  1  0.25916450  0.92411250  0.75000000  1
  O  O80  1  0.74083550  0.92411250  0.75000000  1
  O  O81  1  0.74083550  0.07588750  0.25000000  1
  O  O82  1  0.25916450  0.07588750  0.25000000  1
  O  O83  1  0.17833150  0.58641350  0.57103250  1
  O  O84  1  0.82166850  0.58641350  0.57103250  1
  O  O85  1  0.32166850  0.08641350  0.42896750  1
  O  O86  1  0.67833150  0.08641350  0.42896750  1
  O  O87  1  0.00000000  0.10346100  0.37051100  1
  O  O88  1  0.83229200  0.12506800  0.64304600  1
  O  O89  1  0.16770800  0.12506800  0.64304600  1
  O  O90  1  0.00000000  0.10346100  0.12948900  1
  O  O91  1  0.83229200  0.12506800  0.85695400  1
  O  O92  1  0.16770800  0.12506800  0.85695400  1
  O  O93  1  0.50000000  0.17078900  0.56771100  1
  O  O94  1  0.00000000  0.67078900  0.43228900  1
  O  O95  1  0.50000000  0.20055700  0.75000000  1
