# generated using pymatgen
data_NaCu2H2(SeO5)2
_symmetry_space_group_name_H-M   'P 1'
_cell_length_a   9.42093800
_cell_length_b   6.36222400
_cell_length_c   7.92609044
_cell_angle_alpha   90.00000000
_cell_angle_beta   120.96029275
_cell_angle_gamma   90.00000000
_symmetry_Int_Tables_number   1
_chemical_formula_structural   NaCu2H2(SeO5)2
_chemical_formula_sum   'Na2 Cu4 H4 Se4 O20'
_cell_volume   407.38817857
_cell_formula_units_Z   2
loop_
 _symmetry_equiv_pos_site_id
 _symmetry_equiv_pos_as_xyz
  1  'x, y, z'
loop_
 _atom_site_type_symbol
 _atom_site_label
 _atom_site_symmetry_multiplicity
 _atom_site_fract_x
 _atom_site_fract_y
 _atom_site_fract_z
 _atom_site_occupancy
  Na  Na0  1  0.50000000  0.00000000  0.50000000  1
  Na  Na1  1  0.00000000  0.50000000  0.50000000  1
  Cu  Cu2  1  0.75000000  0.75000000  0.00000000  1
  Cu  Cu3  1  0.25000000  0.75000000  0.00000000  1
  Cu  Cu4  1  0.25000000  0.25000000  0.00000000  1
  Cu  Cu5  1  0.75000000  0.25000000  0.00000000  1
  H  H6  1  0.21131600  0.50000000  0.20367200  1
  H  H7  1  0.28868400  0.00000000  0.79632800  1
  H  H8  1  0.71131600  0.00000000  0.20367200  1
  H  H9  1  0.78868400  0.50000000  0.79632800  1
  Se  Se10  1  0.08447500  0.00000000  0.29947100  1
  Se  Se11  1  0.41552500  0.50000000  0.70052900  1
  Se  Se12  1  0.58447500  0.50000000  0.29947100  1
  Se  Se13  1  0.91552500  0.00000000  0.70052900  1
  O  O14  1  0.68286600  0.50000000  0.17424900  1
  O  O15  1  0.81713400  0.00000000  0.82575100  1
  O  O16  1  0.22670600  0.00000000  0.53646000  1
  O  O17  1  0.27329400  0.50000000  0.46354000  1
  O  O18  1  0.46432600  0.72072800  0.24791300  1
  O  O19  1  0.96432600  0.77927200  0.24791300  1
  O  O20  1  0.03567400  0.77927200  0.75208700  1
  O  O21  1  0.53567400  0.72072800  0.75208700  1
  O  O22  1  0.17602400  0.50000000  0.06170500  1
  O  O23  1  0.32397600  0.00000000  0.93829500  1
  O  O24  1  0.18286600  0.00000000  0.17424900  1
  O  O25  1  0.31713400  0.50000000  0.82575100  1
  O  O26  1  0.72670600  0.50000000  0.53646000  1
  O  O27  1  0.77329400  0.00000000  0.46354000  1
  O  O28  1  0.96432600  0.22072800  0.24791300  1
  O  O29  1  0.46432600  0.27927200  0.24791300  1
  O  O30  1  0.53567400  0.27927200  0.75208700  1
  O  O31  1  0.03567400  0.22072800  0.75208700  1
  O  O32  1  0.67602400  0.00000000  0.06170500  1
  O  O33  1  0.82397600  0.50000000  0.93829500  1
