# generated using pymatgen
data_Li4Fe(TeO4)3
_symmetry_space_group_name_H-M   'P 1'
_cell_length_a   5.04844700
_cell_length_b   8.63835300
_cell_length_c   5.22772534
_cell_angle_alpha   90.00000000
_cell_angle_beta   91.03525958
_cell_angle_gamma   90.00000000
_symmetry_Int_Tables_number   1
_chemical_formula_structural   Li4Fe(TeO4)3
_chemical_formula_sum   'Li4 Fe1 Te3 O12'
_cell_volume   227.94528500
_cell_formula_units_Z   1
loop_
 _symmetry_equiv_pos_site_id
 _symmetry_equiv_pos_as_xyz
  1  'x, y, z'
loop_
 _atom_site_type_symbol
 _atom_site_label
 _atom_site_symmetry_multiplicity
 _atom_site_fract_x
 _atom_site_fract_y
 _atom_site_fract_z
 _atom_site_occupancy
  Li  Li0  1  0.00000000  0.71248000  0.00000000  1
  Li  Li1  1  0.50000000  0.84840900  0.00000000  1
  Li  Li2  1  0.00000000  0.29932800  0.50000000  1
  Li  Li3  1  0.50000000  0.17803500  0.50000000  1
  Fe  Fe4  1  0.00000000  0.10350700  0.00000000  1
  Te  Te5  1  0.50000000  0.60687900  0.50000000  1
  Te  Te6  1  0.50000000  0.40105100  0.00000000  1
  Te  Te7  1  0.00000000  0.92518700  0.50000000  1
  O  O8  1  0.73523300  0.25632300  0.84520800  1
  O  O9  1  0.70640900  0.57655600  0.83798600  1
  O  O10  1  0.80072900  0.92100800  0.80988800  1
  O  O11  1  0.29293900  0.42793300  0.67744500  1
  O  O12  1  0.20119400  0.08771300  0.67195100  1
  O  O13  1  0.23450900  0.76357000  0.66571600  1
  O  O14  1  0.76549100  0.76357000  0.33428400  1
  O  O15  1  0.79880600  0.08771300  0.32804900  1
  O  O16  1  0.70706100  0.42793300  0.32255500  1
  O  O17  1  0.19927100  0.92100800  0.19011200  1
  O  O18  1  0.29359100  0.57655600  0.16201400  1
  O  O19  1  0.26476700  0.25632300  0.15479200  1
