# generated using pymatgen
data_LiMn(PO3)3
_symmetry_space_group_name_H-M   'P 1'
_cell_length_a   10.44738960
_cell_length_b   10.44738960
_cell_length_c   7.10157708
_cell_angle_alpha   90.00000000
_cell_angle_beta   90.00000000
_cell_angle_gamma   120.00000000
_symmetry_Int_Tables_number   1
_chemical_formula_structural   LiMn(PO3)3
_chemical_formula_sum   'Li3 Mn3 P9 O27'
_cell_volume   671.27584238
_cell_formula_units_Z   3
loop_
 _symmetry_equiv_pos_site_id
 _symmetry_equiv_pos_as_xyz
  1  'x, y, z'
loop_
 _atom_site_type_symbol
 _atom_site_label
 _atom_site_symmetry_multiplicity
 _atom_site_fract_x
 _atom_site_fract_y
 _atom_site_fract_z
 _atom_site_occupancy
  Li  Li0  1  0.66666667  0.33333333  0.98538983  1
  Li  Li1  1  0.33333333  0.66666667  0.31872317  1
  Li  Li2  1  0.00000000  0.00000000  0.65205650  1
  Mn  Mn3  1  0.66666667  0.33333333  0.36217508  1
  Mn  Mn4  1  0.33333333  0.66666667  0.69550842  1
  Mn  Mn5  1  0.00000000  0.00000000  0.02884175  1
  P  P6  1  0.23531158  0.33496592  0.84849967  1
  P  P7  1  0.66503408  0.90034567  0.84849967  1
  P  P8  1  0.09965433  0.76468842  0.84849967  1
  P  P9  1  0.90197825  0.66829925  0.18183300  1
  P  P10  1  0.33170075  0.23367900  0.18183300  1
  P  P11  1  0.76632100  0.09802175  0.18183300  1
  P  P12  1  0.56864492  0.00163258  0.51516633  1
  P  P13  1  0.99836742  0.56701233  0.51516633  1
  P  P14  1  0.43298767  0.43135508  0.51516633  1
  O  O15  1  0.37963708  0.36788242  0.72476317  1
  O  O16  1  0.63211758  0.01175467  0.72476317  1
  O  O17  1  0.98824533  0.62036292  0.72476317  1
  O  O18  1  0.48721442  0.26856058  0.13993458  1
  O  O19  1  0.78134617  0.51278558  0.13993458  1
  O  O20  1  0.73143942  0.21865383  0.13993458  1
  O  O21  1  0.58833233  0.46128667  0.49803667  1
  O  O22  1  0.53871333  0.12704567  0.49803667  1
  O  O23  1  0.87295433  0.41166767  0.49803667  1
  O  O24  1  0.04630375  0.70121575  0.05809650  1
  O  O25  1  0.29878425  0.34508800  0.05809650  1
  O  O26  1  0.65491200  0.95369625  0.05809650  1
  O  O27  1  0.15388108  0.60189392  0.47326792  1
  O  O28  1  0.44801283  0.84611892  0.47326792  1
  O  O29  1  0.39810608  0.55198717  0.47326792  1
  O  O30  1  0.25499900  0.79462000  0.83137000  1
  O  O31  1  0.20538000  0.46037900  0.83137000  1
  O  O32  1  0.53962100  0.74500100  0.83137000  1
  O  O33  1  0.71297042  0.03454908  0.39142983  1
  O  O34  1  0.96545092  0.67842133  0.39142983  1
  O  O35  1  0.32157867  0.28702958  0.39142983  1
  O  O36  1  0.82054775  0.93522725  0.80660125  1
  O  O37  1  0.11467950  0.17945225  0.80660125  1
  O  O38  1  0.06477275  0.88532050  0.80660125  1
  O  O39  1  0.92166567  0.12795333  0.16470333  1
  O  O40  1  0.87204667  0.79371233  0.16470333  1
  O  O41  1  0.20628767  0.07833433  0.16470333  1
