# generated using pymatgen
data_Li4Mn3Nb5O16
_symmetry_space_group_name_H-M   'P 1'
_cell_length_a   10.85057600
_cell_length_b   6.09450200
_cell_length_c   10.06859350
_cell_angle_alpha   90.00000000
_cell_angle_beta   90.90374716
_cell_angle_gamma   90.00000000
_symmetry_Int_Tables_number   1
_chemical_formula_structural   Li4Mn3Nb5O16
_chemical_formula_sum   'Li8 Mn6 Nb10 O32'
_cell_volume   665.74175470
_cell_formula_units_Z   2
loop_
 _symmetry_equiv_pos_site_id
 _symmetry_equiv_pos_as_xyz
  1  'x, y, z'
loop_
 _atom_site_type_symbol
 _atom_site_label
 _atom_site_symmetry_multiplicity
 _atom_site_fract_x
 _atom_site_fract_y
 _atom_site_fract_z
 _atom_site_occupancy
  Li  Li0  1  0.67184300  0.00000000  0.09123300  1
  Li  Li1  1  0.99848700  0.00000000  0.01204000  1
  Li  Li2  1  0.50216900  0.50000000  0.51114100  1
  Li  Li3  1  0.84202900  0.50000000  0.60030700  1
  Li  Li4  1  0.17184300  0.50000000  0.09123300  1
  Li  Li5  1  0.49848700  0.50000000  0.01204000  1
  Li  Li6  1  0.00216900  0.00000000  0.51114100  1
  Li  Li7  1  0.34202900  0.00000000  0.60030700  1
  Mn  Mn8  1  0.58392350  0.75479550  0.79272500  1
  Mn  Mn9  1  0.58392350  0.24520450  0.79272500  1
  Mn  Mn10  1  0.66266900  0.50000000  0.28836100  1
  Mn  Mn11  1  0.08392350  0.25479550  0.79272500  1
  Mn  Mn12  1  0.08392350  0.74520450  0.79272500  1
  Mn  Mn13  1  0.16266900  0.00000000  0.28836100  1
  Nb  Nb14  1  0.65975800  0.00000000  0.51037600  1
  Nb  Nb15  1  0.82667800  0.00000000  0.77271100  1
  Nb  Nb16  1  0.83056600  0.50000000  0.00162000  1
  Nb  Nb17  1  0.90909900  0.27408300  0.28448700  1
  Nb  Nb18  1  0.90909900  0.72591700  0.28448700  1
  Nb  Nb19  1  0.15975800  0.50000000  0.51037600  1
  Nb  Nb20  1  0.32667800  0.50000000  0.77271100  1
  Nb  Nb21  1  0.33056600  0.00000000  0.00162000  1
  Nb  Nb22  1  0.40909900  0.77408300  0.28448700  1
  Nb  Nb23  1  0.40909900  0.22591700  0.28448700  1
  O  O24  1  0.57446250  0.76562050  0.40734500  1
  O  O25  1  0.53062600  0.00000000  0.64473900  1
  O  O26  1  0.68465100  0.00000000  0.89503500  1
  O  O27  1  0.99275000  0.00000000  0.69595600  1
  O  O28  1  0.99372700  0.00000000  0.19521000  1
  O  O29  1  0.57446250  0.23437950  0.40734500  1
  O  O30  1  0.75177750  0.77972050  0.65147700  1
  O  O31  1  0.75177750  0.22027950  0.65147700  1
  O  O32  1  0.66911500  0.50000000  0.92181600  1
  O  O33  1  0.83282900  0.00000000  0.40545800  1
  O  O34  1  0.76982400  0.27618800  0.15543300  1
  O  O35  1  0.76982400  0.72381200  0.15543300  1
  O  O36  1  0.82616400  0.50000000  0.40987300  1
  O  O37  1  0.90571800  0.25020000  0.90518800  1
  O  O38  1  0.98640700  0.50000000  0.14299200  1
  O  O39  1  0.90571800  0.74980000  0.90518800  1
  O  O40  1  0.07446250  0.26562050  0.40734500  1
  O  O41  1  0.03062600  0.50000000  0.64473900  1
  O  O42  1  0.18465100  0.50000000  0.89503500  1
  O  O43  1  0.49275000  0.50000000  0.69595600  1
  O  O44  1  0.49372700  0.50000000  0.19521000  1
  O  O45  1  0.07446250  0.73437950  0.40734500  1
  O  O46  1  0.25177750  0.27972050  0.65147700  1
  O  O47  1  0.25177750  0.72027950  0.65147700  1
  O  O48  1  0.16911500  0.00000000  0.92181600  1
  O  O49  1  0.33282900  0.50000000  0.40545800  1
  O  O50  1  0.26982400  0.77618800  0.15543300  1
  O  O51  1  0.26982400  0.22381200  0.15543300  1
  O  O52  1  0.32616400  0.00000000  0.40987300  1
  O  O53  1  0.40571800  0.75020000  0.90518800  1
  O  O54  1  0.48640700  0.00000000  0.14299200  1
  O  O55  1  0.40571800  0.24980000  0.90518800  1
