# generated using pymatgen
data_Li4Ti3Cu3(TeO8)2
_symmetry_space_group_name_H-M   'P 1'
_cell_length_a   10.37607400
_cell_length_b   5.97290800
_cell_length_c   10.12710052
_cell_angle_alpha   90.00000000
_cell_angle_beta   91.70574487
_cell_angle_gamma   90.00000000
_symmetry_Int_Tables_number   1
_chemical_formula_structural   Li4Ti3Cu3(TeO8)2
_chemical_formula_sum   'Li8 Ti6 Cu6 Te4 O32'
_cell_volume   627.35233583
_cell_formula_units_Z   2
loop_
 _symmetry_equiv_pos_site_id
 _symmetry_equiv_pos_as_xyz
  1  'x, y, z'
loop_
 _atom_site_type_symbol
 _atom_site_label
 _atom_site_symmetry_multiplicity
 _atom_site_fract_x
 _atom_site_fract_y
 _atom_site_fract_z
 _atom_site_occupancy
  Li  Li0  1  0.65804500  0.00000000  0.91114000  1
  Li  Li1  1  0.99216800  0.00000000  0.98087000  1
  Li  Li2  1  0.50747400  0.50000000  0.48841900  1
  Li  Li3  1  0.83527500  0.50000000  0.40784500  1
  Li  Li4  1  0.15804500  0.50000000  0.91114000  1
  Li  Li5  1  0.49216800  0.50000000  0.98087000  1
  Li  Li6  1  0.00747400  0.00000000  0.48841900  1
  Li  Li7  1  0.33527500  0.00000000  0.40784500  1
  Ti  Ti8  1  0.59342100  0.24070000  0.21840900  1
  Ti  Ti9  1  0.59342100  0.75930000  0.21840900  1
  Ti  Ti10  1  0.67335300  0.50000000  0.72172800  1
  Ti  Ti11  1  0.09342100  0.74070000  0.21840900  1
  Ti  Ti12  1  0.09342100  0.25930000  0.21840900  1
  Ti  Ti13  1  0.17335300  0.00000000  0.72172800  1
  Cu  Cu14  1  0.83102300  0.00000000  0.20238500  1
  Cu  Cu15  1  0.91497350  0.74600750  0.71570200  1
  Cu  Cu16  1  0.91497350  0.25399250  0.71570200  1
  Cu  Cu17  1  0.33102300  0.50000000  0.20238500  1
  Cu  Cu18  1  0.41497350  0.24600750  0.71570200  1
  Cu  Cu19  1  0.41497350  0.75399250  0.71570200  1
  Te  Te20  1  0.67635700  0.00000000  0.50314900  1
  Te  Te21  1  0.83230300  0.50000000  0.98504100  1
  Te  Te22  1  0.17635700  0.50000000  0.50314900  1
  Te  Te23  1  0.33230300  0.00000000  0.98504100  1
  O  O24  1  0.60417550  0.25722150  0.60727100  1
  O  O25  1  0.51183600  0.00000000  0.31337200  1
  O  O26  1  0.65915700  0.00000000  0.10827900  1
  O  O27  1  0.50120800  0.50000000  0.29187000  1
  O  O28  1  0.50088600  0.50000000  0.79624800  1
  O  O29  1  0.60417550  0.74277850  0.60727100  1
  O  O30  1  0.73045800  0.25030300  0.33359900  1
  O  O31  1  0.73045800  0.74969700  0.33359900  1
  O  O32  1  0.66848300  0.50000000  0.09457900  1
  O  O33  1  0.84660000  0.00000000  0.58766400  1
  O  O34  1  0.74193950  0.71224850  0.86326100  1
  O  O35  1  0.74193950  0.28775150  0.86326100  1
  O  O36  1  0.83087700  0.50000000  0.61924600  1
  O  O37  1  0.91693100  0.74315900  0.08233100  1
  O  O38  1  0.97150700  0.50000000  0.85486600  1
  O  O39  1  0.91693100  0.25684100  0.08233100  1
  O  O40  1  0.10417550  0.75722150  0.60727100  1
  O  O41  1  0.01183600  0.50000000  0.31337200  1
  O  O42  1  0.15915700  0.50000000  0.10827900  1
  O  O43  1  0.00120800  0.00000000  0.29187000  1
  O  O44  1  0.00088600  0.00000000  0.79624800  1
  O  O45  1  0.10417550  0.24277850  0.60727100  1
  O  O46  1  0.23045800  0.75030300  0.33359900  1
  O  O47  1  0.23045800  0.24969700  0.33359900  1
  O  O48  1  0.16848300  0.00000000  0.09457900  1
  O  O49  1  0.34660000  0.50000000  0.58766400  1
  O  O50  1  0.24193950  0.21224850  0.86326100  1
  O  O51  1  0.24193950  0.78775150  0.86326100  1
  O  O52  1  0.33087700  0.00000000  0.61924600  1
  O  O53  1  0.41693100  0.24315900  0.08233100  1
  O  O54  1  0.47150700  0.00000000  0.85486600  1
  O  O55  1  0.41693100  0.75684100  0.08233100  1
