# generated using pymatgen
data_Li2AlNiO4
_symmetry_space_group_name_H-M   'P 1'
_cell_length_a   7.46229400
_cell_length_b   7.50808607
_cell_length_c   6.37815206
_cell_angle_alpha   90.00000000
_cell_angle_beta   90.00000000
_cell_angle_gamma   90.00000000
_symmetry_Int_Tables_number   1
_chemical_formula_structural   Li2AlNiO4
_chemical_formula_sum   'Li8 Al4 Ni4 O16'
_cell_volume   357.35220592
_cell_formula_units_Z   4
loop_
 _symmetry_equiv_pos_site_id
 _symmetry_equiv_pos_as_xyz
  1  'x, y, z'
loop_
 _atom_site_type_symbol
 _atom_site_label
 _atom_site_symmetry_multiplicity
 _atom_site_fract_x
 _atom_site_fract_y
 _atom_site_fract_z
 _atom_site_occupancy
  Li  Li0  1  0.31358850  0.00000000  0.00000000  1
  Li  Li1  1  0.68641150  0.00000000  0.50000000  1
  Li  Li2  1  0.50000000  0.68270700  0.25000000  1
  Li  Li3  1  0.50000000  0.31729300  0.75000000  1
  Li  Li4  1  0.81358850  0.50000000  0.00000000  1
  Li  Li5  1  0.18641150  0.50000000  0.50000000  1
  Li  Li6  1  0.00000000  0.18270700  0.25000000  1
  Li  Li7  1  0.00000000  0.81729300  0.75000000  1
  Al  Al8  1  0.32345775  0.00000000  0.50000000  1
  Al  Al9  1  0.67654225  0.00000000  0.00000000  1
  Al  Al10  1  0.82345775  0.50000000  0.50000000  1
  Al  Al11  1  0.17654225  0.50000000  0.00000000  1
  Ni  Ni12  1  0.50000000  0.67648625  0.75000000  1
  Ni  Ni13  1  0.50000000  0.32351375  0.25000000  1
  Ni  Ni14  1  0.00000000  0.17648625  0.75000000  1
  Ni  Ni15  1  0.00000000  0.82351375  0.25000000  1
  O  O16  1  0.18918125  0.01304850  0.72862800  1
  O  O17  1  0.18918125  0.98695150  0.27137200  1
  O  O18  1  0.81081875  0.01304850  0.77137200  1
  O  O19  1  0.81081875  0.98695150  0.22862800  1
  O  O20  1  0.47765775  0.81767150  0.51430400  1
  O  O21  1  0.47765775  0.18232850  0.48569600  1
  O  O22  1  0.52234225  0.81767150  0.98569600  1
  O  O23  1  0.52234225  0.18232850  0.01430400  1
  O  O24  1  0.68918125  0.51304850  0.72862800  1
  O  O25  1  0.68918125  0.48695150  0.27137200  1
  O  O26  1  0.31081875  0.51304850  0.77137200  1
  O  O27  1  0.31081875  0.48695150  0.22862800  1
  O  O28  1  0.97765775  0.31767150  0.51430400  1
  O  O29  1  0.97765775  0.68232850  0.48569600  1
  O  O30  1  0.02234225  0.31767150  0.98569600  1
  O  O31  1  0.02234225  0.68232850  0.01430400  1
