# generated using pymatgen
data_Li3Cr(NiO3)2
_symmetry_space_group_name_H-M   'P 1'
_cell_length_a   12.86963200
_cell_length_b   2.89444200
_cell_length_c   5.80755599
_cell_angle_alpha   90.00000000
_cell_angle_beta   102.88223241
_cell_angle_gamma   90.00000000
_symmetry_Int_Tables_number   1
_chemical_formula_structural   Li3Cr(NiO3)2
_chemical_formula_sum   'Li6 Cr2 Ni4 O12'
_cell_volume   210.88876322
_cell_formula_units_Z   2
loop_
 _symmetry_equiv_pos_site_id
 _symmetry_equiv_pos_as_xyz
  1  'x, y, z'
loop_
 _atom_site_type_symbol
 _atom_site_label
 _atom_site_symmetry_multiplicity
 _atom_site_fract_x
 _atom_site_fract_y
 _atom_site_fract_z
 _atom_site_occupancy
  Li  Li0  1  0.00000000  0.00000000  0.00000000  1
  Li  Li1  1  0.83125600  0.50000000  0.67354200  1
  Li  Li2  1  0.66874400  0.00000000  0.32645800  1
  Li  Li3  1  0.50000000  0.50000000  0.00000000  1
  Li  Li4  1  0.33125600  0.00000000  0.67354200  1
  Li  Li5  1  0.16874400  0.50000000  0.32645800  1
  Cr  Cr6  1  0.00000000  0.00000000  0.50000000  1
  Cr  Cr7  1  0.50000000  0.50000000  0.50000000  1
  Ni  Ni8  1  0.83375300  0.50000000  0.16314600  1
  Ni  Ni9  1  0.66624700  0.00000000  0.83685400  1
  Ni  Ni10  1  0.33375300  0.00000000  0.16314600  1
  Ni  Ni11  1  0.16624700  0.50000000  0.83685400  1
  O  O12  1  0.84196400  0.00000000  0.40383400  1
  O  O13  1  0.66871700  0.50000000  0.06712900  1
  O  O14  1  0.65803600  0.50000000  0.59616600  1
  O  O15  1  0.99808300  0.50000000  0.73174100  1
  O  O16  1  0.50191700  0.00000000  0.26825900  1
  O  O17  1  0.83128300  0.00000000  0.93287100  1
  O  O18  1  0.34196400  0.50000000  0.40383400  1
  O  O19  1  0.16871700  0.00000000  0.06712900  1
  O  O20  1  0.15803600  0.00000000  0.59616600  1
  O  O21  1  0.49808300  0.00000000  0.73174100  1
  O  O22  1  0.00191700  0.50000000  0.26825900  1
  O  O23  1  0.33128300  0.50000000  0.93287100  1
