# generated using pymatgen
data_Li2MnO2
_symmetry_space_group_name_H-M   'P 1'
_cell_length_a   3.03755729
_cell_length_b   3.64037263
_cell_length_c   10.06835530
_cell_angle_alpha   90.00000000
_cell_angle_beta   90.00000000
_cell_angle_gamma   90.00000000
_symmetry_Int_Tables_number   1
_chemical_formula_structural   Li2MnO2
_chemical_formula_sum   'Li4 Mn2 O4'
_cell_volume   111.33426632
_cell_formula_units_Z   2
loop_
 _symmetry_equiv_pos_site_id
 _symmetry_equiv_pos_as_xyz
  1  'x, y, z'
loop_
 _atom_site_type_symbol
 _atom_site_label
 _atom_site_symmetry_multiplicity
 _atom_site_fract_x
 _atom_site_fract_y
 _atom_site_fract_z
 _atom_site_occupancy
  Li  Li0  1  0.00000000  0.00000000  0.77634750  1
  Li  Li1  1  0.50000000  0.50000000  0.72365250  1
  Li  Li2  1  0.50000000  0.50000000  0.27634750  1
  Li  Li3  1  0.00000000  0.00000000  0.22365250  1
  Mn  Mn4  1  0.00000000  0.00000000  0.50000000  1
  Mn  Mn5  1  0.50000000  0.50000000  0.00000000  1
  O  O6  1  0.00000000  0.50000000  0.85348150  1
  O  O7  1  0.50000000  0.00000000  0.64651850  1
  O  O8  1  0.50000000  0.00000000  0.35348150  1
  O  O9  1  0.00000000  0.50000000  0.14651850  1
