# generated using pymatgen
data_CoPH6O6F
_symmetry_space_group_name_H-M   'P 1'
_cell_length_a   4.83367007
_cell_length_b   5.64031268
_cell_length_c   10.41229616
_cell_angle_alpha   96.37804334
_cell_angle_beta   99.36758852
_cell_angle_gamma   90.90338812
_symmetry_Int_Tables_number   1
_chemical_formula_structural   CoPH6O6F
_chemical_formula_sum   'Co2 P2 H12 O12 F2'
_cell_volume   278.18958119
_cell_formula_units_Z   2
loop_
 _symmetry_equiv_pos_site_id
 _symmetry_equiv_pos_as_xyz
  1  'x, y, z'
loop_
 _atom_site_type_symbol
 _atom_site_label
 _atom_site_symmetry_multiplicity
 _atom_site_fract_x
 _atom_site_fract_y
 _atom_site_fract_z
 _atom_site_occupancy
  Co  Co0  1  0.00000000  0.00000000  0.00000000  1
  Co  Co1  1  0.50000000  0.00000000  0.50000000  1
  P  P2  1  0.07342100  0.83939300  0.69552700  1
  P  P3  1  0.92657900  0.16060700  0.30447300  1
  H  H4  1  0.50915550  0.77095100  0.89689000  1
  H  H5  1  0.49084450  0.22904900  0.10311000  1
  H  H6  1  0.73153150  0.56280400  0.91948550  1
  H  H7  1  0.26846850  0.43719600  0.08051450  1
  H  H8  1  0.23599450  0.81780700  0.21097550  1
  H  H9  1  0.76400550  0.18219300  0.78902450  1
  H  H10  1  0.46138350  0.79823800  0.11505700  1
  H  H11  1  0.53861650  0.20176200  0.88494300  1
  H  H12  1  0.64579400  0.53424300  0.40453800  1
  H  H13  1  0.35420600  0.46575700  0.59546200  1
  H  H14  1  0.85858550  0.74158000  0.38885900  1
  H  H15  1  0.14141450  0.25842000  0.61114100  1
  O  O16  1  0.20544900  0.88955400  0.84098850  1
  O  O17  1  0.79455100  0.11044600  0.15901150  1
  O  O18  1  0.28601150  0.77761700  0.60519300  1
  O  O19  1  0.71398850  0.22238300  0.39480700  1
  O  O20  1  0.86662600  0.03077300  0.65346900  1
  O  O21  1  0.13337400  0.96922700  0.34653100  1
  O  O22  1  0.69072850  0.72941500  0.94989100  1
  O  O23  1  0.30927150  0.27058500  0.05010900  1
  O  O24  1  0.26304050  0.76343700  0.11865300  1
  O  O25  1  0.73695950  0.23656300  0.88134700  1
  O  O26  1  0.66208300  0.70784500  0.39688800  1
  O  O27  1  0.33791700  0.29215500  0.60311200  1
  F  F28  1  0.88932650  0.59820800  0.68613950  1
  F  F29  1  0.11067350  0.40179200  0.31386050  1
