# generated using pymatgen
data_Fe4O7F
_symmetry_space_group_name_H-M   'P 1'
_cell_length_a   7.57072300
_cell_length_b   4.64245400
_cell_length_c   7.58780357
_cell_angle_alpha   90.00000000
_cell_angle_beta   104.35513865
_cell_angle_gamma   90.00000000
_symmetry_Int_Tables_number   1
_chemical_formula_structural   Fe4O7F
_chemical_formula_sum   'Fe8 O14 F2'
_cell_volume   258.35991075
_cell_formula_units_Z   2
loop_
 _symmetry_equiv_pos_site_id
 _symmetry_equiv_pos_as_xyz
  1  'x, y, z'
loop_
 _atom_site_type_symbol
 _atom_site_label
 _atom_site_symmetry_multiplicity
 _atom_site_fract_x
 _atom_site_fract_y
 _atom_site_fract_z
 _atom_site_occupancy
  Fe  Fe0  1  0.31257300  0.51560800  0.42688500  1
  Fe  Fe1  1  0.55704000  0.47661100  0.18234500  1
  Fe  Fe2  1  0.04844800  0.51003400  0.68367500  1
  Fe  Fe3  1  0.81467800  0.49924300  0.94257900  1
  Fe  Fe4  1  0.44296000  0.97661100  0.81765500  1
  Fe  Fe5  1  0.18532200  0.99924300  0.05742100  1
  Fe  Fe6  1  0.95155200  0.01003400  0.31632500  1
  Fe  Fe7  1  0.68742700  0.01560800  0.57311500  1
  O  O8  1  0.64896700  0.19455400  0.79241400  1
  O  O9  1  0.16855400  0.19827200  0.27866800  1
  O  O10  1  0.40340500  0.18381600  0.02461400  1
  O  O11  1  0.90914800  0.19141800  0.53431000  1
  O  O12  1  0.53711500  0.30685200  0.40665500  1
  O  O13  1  0.78499500  0.30749700  0.16378400  1
  O  O14  1  0.02665600  0.31206900  0.90658800  1
  O  O15  1  0.59659500  0.68381600  0.97538600  1
  O  O16  1  0.35103300  0.69455400  0.20758600  1
  O  O17  1  0.83144600  0.69827200  0.72133200  1
  O  O18  1  0.09085200  0.69141800  0.46569000  1
  O  O19  1  0.21500500  0.80749700  0.83621600  1
  O  O20  1  0.46288500  0.80685200  0.59334500  1
  O  O21  1  0.97334400  0.81206900  0.09341200  1
  F  F22  1  0.28177900  0.30402600  0.65665700  1
  F  F23  1  0.71822100  0.80402600  0.34334300  1
