# generated using pymatgen
data_Li4V3P8O29
_symmetry_space_group_name_H-M   'P 1'
_cell_length_a   16.95280400
_cell_length_b   9.80215000
_cell_length_c   13.95652758
_cell_angle_alpha   90.00000000
_cell_angle_beta   90.04642688
_cell_angle_gamma   90.00000000
_symmetry_Int_Tables_number   1
_chemical_formula_structural   Li4V3P8O29
_chemical_formula_sum   'Li16 V12 P32 O116'
_cell_volume   2319.21024434
_cell_formula_units_Z   4
loop_
 _symmetry_equiv_pos_site_id
 _symmetry_equiv_pos_as_xyz
  1  'x, y, z'
loop_
 _atom_site_type_symbol
 _atom_site_label
 _atom_site_symmetry_multiplicity
 _atom_site_fract_x
 _atom_site_fract_y
 _atom_site_fract_z
 _atom_site_occupancy
  Li  Li0  1  0.38614650  0.29511350  0.69112200  1
  Li  Li1  1  0.15889600  0.93130800  0.68959800  1
  Li  Li2  1  0.45169700  0.77356600  0.69204400  1
  Li  Li3  1  0.61385350  0.29511350  0.30887800  1
  Li  Li4  1  0.38581250  0.70833650  0.18987900  1
  Li  Li5  1  0.84110400  0.93130800  0.31040200  1
  Li  Li6  1  0.54830300  0.77356600  0.30795600  1
  Li  Li7  1  0.61418750  0.70833650  0.81012100  1
  Li  Li8  1  0.88614650  0.79511350  0.69112200  1
  Li  Li9  1  0.65889600  0.43130800  0.68959800  1
  Li  Li10  1  0.95169700  0.27356600  0.69204400  1
  Li  Li11  1  0.11385350  0.79511350  0.30887800  1
  Li  Li12  1  0.88581250  0.20833650  0.18987900  1
  Li  Li13  1  0.34110400  0.43130800  0.31040200  1
  Li  Li14  1  0.04830300  0.27356600  0.30795600  1
  Li  Li15  1  0.11418750  0.20833650  0.81012100  1
  V  V16  1  0.21624950  0.78430350  0.50212300  1
  V  V17  1  0.78131350  0.21375950  0.99370000  1
  V  V18  1  0.50000000  0.07138500  0.00000000  1
  V  V19  1  0.50000000  0.93607100  0.50000000  1
  V  V20  1  0.78375050  0.78430350  0.49787700  1
  V  V21  1  0.21868650  0.21375950  0.00630000  1
  V  V22  1  0.71624950  0.28430350  0.50212300  1
  V  V23  1  0.28131350  0.71375950  0.99370000  1
  V  V24  1  0.00000000  0.57138500  0.00000000  1
  V  V25  1  0.00000000  0.43607100  0.50000000  1
  V  V26  1  0.28375050  0.28430350  0.49787700  1
  V  V27  1  0.71868650  0.71375950  0.00630000  1
  P  P28  1  0.38479050  0.29805650  0.90782200  1
  P  P29  1  0.45801200  0.22780500  0.40623000  1
  P  P30  1  0.15806150  0.07212150  0.40846900  1
  P  P31  1  0.33376300  0.00152400  0.62333000  1
  P  P32  1  0.33537200  0.99603700  0.12186000  1
  P  P33  1  0.15786750  0.93098750  0.90794400  1
  P  P34  1  0.61520950  0.29805650  0.09217800  1
  P  P35  1  0.45593150  0.77556450  0.90880700  1
  P  P36  1  0.54198800  0.22780500  0.59377000  1
  P  P37  1  0.38395700  0.70444700  0.40746200  1
  P  P38  1  0.84193850  0.07212150  0.59153100  1
  P  P39  1  0.66623700  0.00152400  0.37667000  1
  P  P40  1  0.66462800  0.99603700  0.87814000  1
  P  P41  1  0.84213250  0.93098750  0.09205600  1
  P  P42  1  0.54406850  0.77556450  0.09119300  1
  P  P43  1  0.61604300  0.70444700  0.59253800  1
  P  P44  1  0.88479050  0.79805650  0.90782200  1
  P  P45  1  0.95801200  0.72780500  0.40623000  1
  P  P46  1  0.65806150  0.57212150  0.40846900  1
  P  P47  1  0.83376300  0.50152400  0.62333000  1
  P  P48  1  0.83537200  0.49603700  0.12186000  1
  P  P49  1  0.65786750  0.43098750  0.90794400  1
  P  P50  1  0.11520950  0.79805650  0.09217800  1
  P  P51  1  0.95593150  0.27556450  0.90880700  1
  P  P52  1  0.04198800  0.72780500  0.59377000  1
  P  P53  1  0.88395700  0.20444700  0.40746200  1
  P  P54  1  0.34193850  0.57212150  0.59153100  1
  P  P55  1  0.16623700  0.50152400  0.37667000  1
  P  P56  1  0.16462800  0.49603700  0.87814000  1
  P  P57  1  0.34213250  0.43098750  0.09205600  1
  P  P58  1  0.04406850  0.27556450  0.09119300  1
  P  P59  1  0.11604300  0.20444700  0.59253800  1
  O  O60  1  0.87710600  0.88545400  0.18375700  1
  O  O61  1  0.37428150  0.28972650  0.40766400  1
  O  O62  1  0.49577350  0.25943450  0.68103800  1
  O  O63  1  0.45657700  0.20061400  0.91638800  1
  O  O64  1  0.30830950  0.21469850  0.92957600  1
  O  O65  1  0.33762500  0.14993800  0.58339700  1
  O  O66  1  0.23870750  0.14347050  0.42655000  1
  O  O67  1  0.61919150  0.62281450  0.68397100  1
  O  O68  1  0.16960650  0.08837950  0.91290900  1
  O  O69  1  0.40804050  0.07130350  0.07544800  1
  O  O70  1  0.45253900  0.07044700  0.42749700  1
  O  O71  1  0.26032150  0.07378950  0.07738200  1
  O  O72  1  0.33750900  0.99470100  0.73020000  1
  O  O73  1  0.33514850  0.99758250  0.22793000  1
  O  O74  1  0.25675250  0.93074550  0.58408900  1
  O  O75  1  0.45277450  0.93049350  0.92602800  1
  O  O76  1  0.40856200  0.92085900  0.57918500  1
  O  O77  1  0.16939050  0.91506250  0.41089000  1
  O  O78  1  0.10442500  0.89785800  0.00033500  1
  O  O79  1  0.62000900  0.37365400  0.18345400  1
  O  O80  1  0.12289400  0.88545400  0.81624300  1
  O  O81  1  0.23902300  0.85884400  0.92733800  1
  O  O82  1  0.33442050  0.84648550  0.08052800  1
  O  O83  1  0.62571850  0.28972650  0.59233600  1
  O  O84  1  0.31074800  0.79077000  0.42570700  1
  O  O85  1  0.45943500  0.79573900  0.41068400  1
  O  O86  1  0.50000000  0.29162800  0.50000000  1
  O  O87  1  0.50422650  0.25943450  0.31896200  1
  O  O88  1  0.50023850  0.74077450  0.18108200  1
  O  O89  1  0.54342300  0.20061400  0.08361200  1
  O  O90  1  0.69169050  0.21469850  0.07042400  1
  O  O91  1  0.37178700  0.71487300  0.91396600  1
  O  O92  1  0.66237500  0.14993800  0.41660300  1
  O  O93  1  0.76129250  0.14347050  0.57345000  1
  O  O94  1  0.38397500  0.62269000  0.67772400  1
  O  O95  1  0.38080850  0.62281450  0.31602900  1
  O  O96  1  0.89412300  0.10056900  0.49577900  1
  O  O97  1  0.83039350  0.08837950  0.08709100  1
  O  O98  1  0.59195950  0.07130350  0.92455200  1
  O  O99  1  0.54746100  0.07044700  0.57250300  1
  O  O100  1  0.73967850  0.07378950  0.92261800  1
  O  O101  1  0.66485150  0.99758250  0.77207000  1
  O  O102  1  0.66249100  0.99470100  0.26980000  1
  O  O103  1  0.74324750  0.93074550  0.41591100  1
  O  O104  1  0.54722550  0.93049350  0.07397200  1
  O  O105  1  0.59143800  0.92085900  0.42081500  1
  O  O106  1  0.83060950  0.91506250  0.58911000  1
  O  O107  1  0.89557500  0.89785800  0.99966500  1
  O  O108  1  0.37999100  0.37365400  0.81654600  1
  O  O109  1  0.76097700  0.85884400  0.07266200  1
  O  O110  1  0.66557950  0.84648550  0.91947200  1
  O  O111  1  0.68925200  0.79077000  0.57429300  1
  O  O112  1  0.54056500  0.79573900  0.58931600  1
  O  O113  1  0.49976150  0.74077450  0.81891800  1
  O  O114  1  0.50000000  0.70765200  0.00000000  1
  O  O115  1  0.62821300  0.71487300  0.08603400  1
  O  O116  1  0.61602500  0.62269000  0.32227600  1
  O  O117  1  0.10587700  0.10056900  0.50422100  1
  O  O118  1  0.37710600  0.38545400  0.18375700  1
  O  O119  1  0.87428150  0.78972650  0.40766400  1
  O  O120  1  0.99577350  0.75943450  0.68103800  1
  O  O121  1  0.95657700  0.70061400  0.91638800  1
  O  O122  1  0.80830950  0.71469850  0.92957600  1
  O  O123  1  0.83762500  0.64993800  0.58339700  1
  O  O124  1  0.73870750  0.64347050  0.42655000  1
  O  O125  1  0.11919150  0.12281450  0.68397100  1
  O  O126  1  0.66960650  0.58837950  0.91290900  1
  O  O127  1  0.90804050  0.57130350  0.07544800  1
  O  O128  1  0.95253900  0.57044700  0.42749700  1
  O  O129  1  0.76032150  0.57378950  0.07738200  1
  O  O130  1  0.83750900  0.49470100  0.73020000  1
  O  O131  1  0.83514850  0.49758250  0.22793000  1
  O  O132  1  0.75675250  0.43074550  0.58408900  1
  O  O133  1  0.95277450  0.43049350  0.92602800  1
  O  O134  1  0.90856200  0.42085900  0.57918500  1
  O  O135  1  0.66939050  0.41506250  0.41089000  1
  O  O136  1  0.60442500  0.39785800  0.00033500  1
  O  O137  1  0.12000900  0.87365400  0.18345400  1
  O  O138  1  0.62289400  0.38545400  0.81624300  1
  O  O139  1  0.73902300  0.35884400  0.92733800  1
  O  O140  1  0.83442050  0.34648550  0.08052800  1
  O  O141  1  0.12571850  0.78972650  0.59233600  1
  O  O142  1  0.81074800  0.29077000  0.42570700  1
  O  O143  1  0.95943500  0.29573900  0.41068400  1
  O  O144  1  0.00000000  0.79162800  0.50000000  1
  O  O145  1  0.00422650  0.75943450  0.31896200  1
  O  O146  1  0.00023850  0.24077450  0.18108200  1
  O  O147  1  0.04342300  0.70061400  0.08361200  1
  O  O148  1  0.19169050  0.71469850  0.07042400  1
  O  O149  1  0.87178700  0.21487300  0.91396600  1
  O  O150  1  0.16237500  0.64993800  0.41660300  1
  O  O151  1  0.26129250  0.64347050  0.57345000  1
  O  O152  1  0.88397500  0.12269000  0.67772400  1
  O  O153  1  0.88080850  0.12281450  0.31602900  1
  O  O154  1  0.39412300  0.60056900  0.49577900  1
  O  O155  1  0.33039350  0.58837950  0.08709100  1
  O  O156  1  0.09195950  0.57130350  0.92455200  1
  O  O157  1  0.04746100  0.57044700  0.57250300  1
  O  O158  1  0.23967850  0.57378950  0.92261800  1
  O  O159  1  0.16485150  0.49758250  0.77207000  1
  O  O160  1  0.16249100  0.49470100  0.26980000  1
  O  O161  1  0.24324750  0.43074550  0.41591100  1
  O  O162  1  0.04722550  0.43049350  0.07397200  1
  O  O163  1  0.09143800  0.42085900  0.42081500  1
  O  O164  1  0.33060950  0.41506250  0.58911000  1
  O  O165  1  0.39557500  0.39785800  0.99966500  1
  O  O166  1  0.87999100  0.87365400  0.81654600  1
  O  O167  1  0.26097700  0.35884400  0.07266200  1
  O  O168  1  0.16557950  0.34648550  0.91947200  1
  O  O169  1  0.18925200  0.29077000  0.57429300  1
  O  O170  1  0.04056500  0.29573900  0.58931600  1
  O  O171  1  0.99976150  0.24077450  0.81891800  1
  O  O172  1  0.00000000  0.20765200  0.00000000  1
  O  O173  1  0.12821300  0.21487300  0.08603400  1
  O  O174  1  0.11602500  0.12269000  0.32227600  1
  O  O175  1  0.60587700  0.60056900  0.50422100  1
