# generated using pymatgen
data_Li4MnO2F3
_symmetry_space_group_name_H-M   'P 1'
_cell_length_a   9.47540632
_cell_length_b   3.94299602
_cell_length_c   6.65159971
_cell_angle_alpha   90.00000000
_cell_angle_beta   132.34305787
_cell_angle_gamma   90.00000000
_symmetry_Int_Tables_number   1
_chemical_formula_structural   Li4MnO2F3
_chemical_formula_sum   'Li8 Mn2 O4 F6'
_cell_volume   183.68269680
_cell_formula_units_Z   2
loop_
 _symmetry_equiv_pos_site_id
 _symmetry_equiv_pos_as_xyz
  1  'x, y, z'
loop_
 _atom_site_type_symbol
 _atom_site_label
 _atom_site_symmetry_multiplicity
 _atom_site_fract_x
 _atom_site_fract_y
 _atom_site_fract_z
 _atom_site_occupancy
  Li  Li0  1  0.30544175  0.50000000  0.41735700  1
  Li  Li1  1  0.38466613  0.00000000  0.17399300  1
  Li  Li2  1  0.57583725  0.00000000  0.77355900  1
  Li  Li3  1  0.69392425  0.50000000  0.62672000  1
  Li  Li4  1  0.80544175  0.00000000  0.41735700  1
  Li  Li5  1  0.88466613  0.50000000  0.17399300  1
  Li  Li6  1  0.07583725  0.50000000  0.77355900  1
  Li  Li7  1  0.19392425  0.00000000  0.62672000  1
  Mn  Mn8  1  0.50896925  0.50000000  0.99452300  1
  Mn  Mn9  1  0.00896925  0.00000000  0.99452300  1
  O  O10  1  0.49807187  0.00000000  0.00437200  1
  O  O11  1  0.59145562  0.50000000  0.81038000  1
  O  O12  1  0.99807187  0.50000000  0.00437200  1
  O  O13  1  0.09145562  0.00000000  0.81038000  1
  F  F14  1  0.30546675  0.00000000  0.39836300  1
  F  F15  1  0.42598925  0.50000000  0.21505200  1
  F  F16  1  0.69890850  0.00000000  0.60585600  1
  F  F17  1  0.80546675  0.50000000  0.39836300  1
  F  F18  1  0.92598925  0.00000000  0.21505200  1
  F  F19  1  0.19890850  0.50000000  0.60585600  1
