# generated using pymatgen
data_LiMn3Al2(HO2)6
_symmetry_space_group_name_H-M   'P 1'
_cell_length_a   5.10404200
_cell_length_b   8.96741200
_cell_length_c   19.14171039
_cell_angle_alpha   90.00000000
_cell_angle_beta   95.39999375
_cell_angle_gamma   90.00000000
_symmetry_Int_Tables_number   1
_chemical_formula_structural   LiMn3Al2(HO2)6
_chemical_formula_sum   'Li4 Mn12 Al8 H24 O48'
_cell_volume   872.22876423
_cell_formula_units_Z   4
loop_
 _symmetry_equiv_pos_site_id
 _symmetry_equiv_pos_as_xyz
  1  'x, y, z'
loop_
 _atom_site_type_symbol
 _atom_site_label
 _atom_site_symmetry_multiplicity
 _atom_site_fract_x
 _atom_site_fract_y
 _atom_site_fract_z
 _atom_site_occupancy
  Li  Li0  1  0.66691450  0.58340350  0.24996200  1
  Li  Li1  1  0.16691450  0.91659650  0.74996200  1
  Li  Li2  1  0.16691450  0.08340350  0.24996200  1
  Li  Li3  1  0.66691450  0.41659650  0.74996200  1
  Mn  Mn4  1  0.91465900  0.74863000  0.49997400  1
  Mn  Mn5  1  0.91653900  0.58335700  0.99996500  1
  Mn  Mn6  1  0.41653900  0.91664300  0.49996500  1
  Mn  Mn7  1  0.41465900  0.75137000  0.99997400  1
  Mn  Mn8  1  0.41857900  0.58463400  0.49998200  1
  Mn  Mn9  1  0.91857900  0.91536600  0.99998200  1
  Mn  Mn10  1  0.41465900  0.24863000  0.49997400  1
  Mn  Mn11  1  0.41653900  0.08335700  0.99996500  1
  Mn  Mn12  1  0.91653900  0.41664300  0.49996500  1
  Mn  Mn13  1  0.91465900  0.25137000  0.99997400  1
  Mn  Mn14  1  0.91857900  0.08463400  0.49998200  1
  Mn  Mn15  1  0.41857900  0.41536600  0.99998200  1
  Al  Al16  1  0.16696800  0.74980800  0.25002900  1
  Al  Al17  1  0.16611600  0.58305400  0.75002800  1
  Al  Al18  1  0.66696800  0.75019200  0.75002900  1
  Al  Al19  1  0.66611600  0.91694600  0.25002800  1
  Al  Al20  1  0.66696800  0.24980800  0.25002900  1
  Al  Al21  1  0.66611600  0.08305400  0.75002800  1
  Al  Al22  1  0.16696800  0.25019200  0.75002900  1
  Al  Al23  1  0.16611600  0.41694600  0.25002800  1
  H  H24  1  0.80345000  0.59419200  0.64669500  1
  H  H25  1  0.80533700  0.75917800  0.14675200  1
  H  H26  1  0.02772450  0.90900250  0.35318800  1
  H  H27  1  0.03055500  0.74531700  0.85322500  1
  H  H28  1  0.30533700  0.74082200  0.64675200  1
  H  H29  1  0.30345000  0.90580800  0.14669500  1
  H  H30  1  0.05026800  0.58436900  0.35302400  1
  H  H31  1  0.55026800  0.91563100  0.85302400  1
  H  H32  1  0.78403200  0.91665900  0.64697700  1
  H  H33  1  0.28403200  0.58334100  0.14697700  1
  H  H34  1  0.52772450  0.59099750  0.85318800  1
  H  H35  1  0.53055500  0.75468300  0.35322500  1
  H  H36  1  0.30345000  0.09419200  0.64669500  1
  H  H37  1  0.30533700  0.25917800  0.14675200  1
  H  H38  1  0.52772450  0.40900250  0.35318800  1
  H  H39  1  0.53055500  0.24531700  0.85322500  1
  H  H40  1  0.80533700  0.24082200  0.64675200  1
  H  H41  1  0.80345000  0.40580800  0.14669500  1
  H  H42  1  0.55026800  0.08436900  0.35302400  1
  H  H43  1  0.05026800  0.41563100  0.85302400  1
  H  H44  1  0.28403200  0.41665900  0.64697700  1
  H  H45  1  0.78403200  0.08334100  0.14697700  1
  H  H46  1  0.02772450  0.09099750  0.85318800  1
  H  H47  1  0.03055500  0.25468300  0.35322500  1
  O  O48  1  0.75623050  0.59817550  0.55407500  1
  O  O49  1  0.82934850  0.59838650  0.69844600  1
  O  O50  1  0.82961150  0.76532150  0.19833700  1
  O  O51  1  0.76502700  0.75558600  0.05135500  1
  O  O52  1  0.00334100  0.90137900  0.30174400  1
  O  O53  1  0.06495800  0.91714600  0.45001200  1
  O  O54  1  0.07713400  0.76497700  0.94586800  1
  O  O55  1  0.00316250  0.73412250  0.80175100  1
  O  O56  1  0.32961150  0.73467850  0.69833700  1
  O  O57  1  0.26502700  0.74441400  0.55135500  1
  O  O58  1  0.25623050  0.90182450  0.05407500  1
  O  O59  1  0.32934850  0.90161350  0.19844600  1
  O  O60  1  0.54783050  0.91652250  0.80152400  1
  O  O61  1  0.56826650  0.91117950  0.94859900  1
  O  O62  1  0.04783050  0.58347750  0.30152400  1
  O  O63  1  0.06826650  0.58882050  0.44859900  1
  O  O64  1  0.26811450  0.58390150  0.04994600  1
  O  O65  1  0.78578750  0.91673450  0.69838900  1
  O  O66  1  0.28578750  0.58326550  0.19838900  1
  O  O67  1  0.76811450  0.91609850  0.54994600  1
  O  O68  1  0.50316250  0.76587750  0.30175100  1
  O  O69  1  0.57713400  0.73502300  0.44586800  1
  O  O70  1  0.50334100  0.59862100  0.80174400  1
  O  O71  1  0.56495800  0.58285400  0.95001200  1
  O  O72  1  0.25623050  0.09817550  0.55407500  1
  O  O73  1  0.32934850  0.09838650  0.69844600  1
  O  O74  1  0.32961150  0.26532150  0.19833700  1
  O  O75  1  0.26502700  0.25558600  0.05135500  1
  O  O76  1  0.50334100  0.40137900  0.30174400  1
  O  O77  1  0.56495800  0.41714600  0.45001200  1
  O  O78  1  0.57713400  0.26497700  0.94586800  1
  O  O79  1  0.50316250  0.23412250  0.80175100  1
  O  O80  1  0.82961150  0.23467850  0.69833700  1
  O  O81  1  0.76502700  0.24441400  0.55135500  1
  O  O82  1  0.75623050  0.40182450  0.05407500  1
  O  O83  1  0.82934850  0.40161350  0.19844600  1
  O  O84  1  0.04783050  0.41652250  0.80152400  1
  O  O85  1  0.06826650  0.41117950  0.94859900  1
  O  O86  1  0.54783050  0.08347750  0.30152400  1
  O  O87  1  0.56826650  0.08882050  0.44859900  1
  O  O88  1  0.76811450  0.08390150  0.04994600  1
  O  O89  1  0.28578750  0.41673450  0.69838900  1
  O  O90  1  0.78578750  0.08326550  0.19838900  1
  O  O91  1  0.26811450  0.41609850  0.54994600  1
  O  O92  1  0.00316250  0.26587750  0.30175100  1
  O  O93  1  0.07713400  0.23502300  0.44586800  1
  O  O94  1  0.00334100  0.09862100  0.80174400  1
  O  O95  1  0.06495800  0.08285400  0.95001200  1
