# generated using pymatgen
data_Li5CoO4
_symmetry_space_group_name_H-M   'P 1'
_cell_length_a   8.80676200
_cell_length_b   9.44181000
_cell_length_c   4.72322800
_cell_angle_alpha   90.00000000
_cell_angle_beta   90.00000000
_cell_angle_gamma   90.00000000
_symmetry_Int_Tables_number   1
_chemical_formula_structural   Li5CoO4
_chemical_formula_sum   'Li20 Co4 O16'
_cell_volume   392.74478494
_cell_formula_units_Z   4
loop_
 _symmetry_equiv_pos_site_id
 _symmetry_equiv_pos_as_xyz
  1  'x, y, z'
loop_
 _atom_site_type_symbol
 _atom_site_label
 _atom_site_symmetry_multiplicity
 _atom_site_fract_x
 _atom_site_fract_y
 _atom_site_fract_z
 _atom_site_occupancy
  Li  Li0  1  0.29524400  0.75406800  0.47376400  1
  Li  Li1  1  0.71767900  0.00213200  0.55853800  1
  Li  Li2  1  0.78232100  0.00213200  0.05853800  1
  Li  Li3  1  0.70475600  0.75406800  0.52623600  1
  Li  Li4  1  0.50000000  0.51782600  0.50000000  1
  Li  Li5  1  0.29524400  0.25406800  0.02623600  1
  Li  Li6  1  0.21767900  0.00213200  0.94146200  1
  Li  Li7  1  0.28232100  0.00213200  0.44146200  1
  Li  Li8  1  0.70475600  0.25406800  0.97376400  1
  Li  Li9  1  0.50000000  0.01782600  0.00000000  1
  Li  Li10  1  0.79524400  0.25406800  0.47376400  1
  Li  Li11  1  0.21767900  0.50213200  0.55853800  1
  Li  Li12  1  0.28232100  0.50213200  0.05853800  1
  Li  Li13  1  0.20475600  0.25406800  0.52623600  1
  Li  Li14  1  0.00000000  0.01782600  0.50000000  1
  Li  Li15  1  0.79524400  0.75406800  0.02623600  1
  Li  Li16  1  0.71767900  0.50213200  0.94146200  1
  Li  Li17  1  0.78232100  0.50213200  0.44146200  1
  Li  Li18  1  0.20475600  0.75406800  0.97376400  1
  Li  Li19  1  0.00000000  0.51782600  0.00000000  1
  Co  Co20  1  0.50000000  0.74337800  0.00000000  1
  Co  Co21  1  0.50000000  0.24337800  0.50000000  1
  Co  Co22  1  0.00000000  0.24337800  0.00000000  1
  Co  Co23  1  0.00000000  0.74337800  0.50000000  1
  O  O24  1  0.63083450  0.13115750  0.27578400  1
  O  O25  1  0.36916550  0.63115750  0.77578400  1
  O  O26  1  0.63981400  0.87387900  0.83959500  1
  O  O27  1  0.86018600  0.87387900  0.33959500  1
  O  O28  1  0.63083450  0.63115750  0.22421600  1
  O  O29  1  0.13981400  0.87387900  0.66040500  1
  O  O30  1  0.36916550  0.13115750  0.72421600  1
  O  O31  1  0.36018600  0.87387900  0.16040500  1
  O  O32  1  0.13083450  0.63115750  0.27578400  1
  O  O33  1  0.86916550  0.13115750  0.77578400  1
  O  O34  1  0.13981400  0.37387900  0.83959500  1
  O  O35  1  0.36018600  0.37387900  0.33959500  1
  O  O36  1  0.13083450  0.13115750  0.22421600  1
  O  O37  1  0.63981400  0.37387900  0.66040500  1
  O  O38  1  0.86916550  0.63115750  0.72421600  1
  O  O39  1  0.86018600  0.37387900  0.16040500  1
