# generated using pymatgen
data_Mn2FeO6
_symmetry_space_group_name_H-M   'P 1'
_cell_length_a   12.70468600
_cell_length_b   2.95006800
_cell_length_c   5.77516337
_cell_angle_alpha   90.00000000
_cell_angle_beta   101.21823443
_cell_angle_gamma   90.00000000
_symmetry_Int_Tables_number   1
_chemical_formula_structural   Mn2FeO6
_chemical_formula_sum   'Mn4 Fe2 O12'
_cell_volume   212.31564654
_cell_formula_units_Z   2
loop_
 _symmetry_equiv_pos_site_id
 _symmetry_equiv_pos_as_xyz
  1  'x, y, z'
loop_
 _atom_site_type_symbol
 _atom_site_label
 _atom_site_symmetry_multiplicity
 _atom_site_fract_x
 _atom_site_fract_y
 _atom_site_fract_z
 _atom_site_occupancy
  Mn  Mn0  1  0.83210200  0.00000000  0.66522200  1
  Mn  Mn1  1  0.66789800  0.50000000  0.33477800  1
  Mn  Mn2  1  0.33210200  0.50000000  0.66522200  1
  Mn  Mn3  1  0.16789800  0.00000000  0.33477800  1
  Fe  Fe4  1  0.00000000  0.50000000  0.00000000  1
  Fe  Fe5  1  0.50000000  0.00000000  0.00000000  1
  O  O6  1  0.84015600  0.50000000  0.88649000  1
  O  O7  1  0.67732500  0.00000000  0.55870700  1
  O  O8  1  0.65984400  0.00000000  0.11351000  1
  O  O9  1  0.51242900  0.50000000  0.23139000  1
  O  O10  1  0.98757100  0.00000000  0.76861000  1
  O  O11  1  0.82267500  0.50000000  0.44129300  1
  O  O12  1  0.34015600  0.00000000  0.88649000  1
  O  O13  1  0.17732500  0.50000000  0.55870700  1
  O  O14  1  0.15984400  0.50000000  0.11351000  1
  O  O15  1  0.01242900  0.00000000  0.23139000  1
  O  O16  1  0.48757100  0.50000000  0.76861000  1
  O  O17  1  0.32267500  0.00000000  0.44129300  1
