# generated using pymatgen
data_Li4Ti3Fe2Cu3O16
_symmetry_space_group_name_H-M   'P 1'
_cell_length_a   10.19480226
_cell_length_b   5.88759600
_cell_length_c   9.62488173
_cell_angle_alpha   90.00000000
_cell_angle_beta   91.15562027
_cell_angle_gamma   90.00000000
_symmetry_Int_Tables_number   1
_chemical_formula_structural   Li4Ti3Fe2Cu3O16
_chemical_formula_sum   'Li8 Ti6 Fe4 Cu6 O32'
_cell_volume   577.59558813
_cell_formula_units_Z   2
loop_
 _symmetry_equiv_pos_site_id
 _symmetry_equiv_pos_as_xyz
  1  'x, y, z'
loop_
 _atom_site_type_symbol
 _atom_site_label
 _atom_site_symmetry_multiplicity
 _atom_site_fract_x
 _atom_site_fract_y
 _atom_site_fract_z
 _atom_site_occupancy
  Li  Li0  1  0.33378450  0.00000000  0.10306200  1
  Li  Li1  1  0.01082750  0.00000000  0.00942900  1
  Li  Li2  1  0.00091100  0.00000000  0.50369300  1
  Li  Li3  1  0.66146950  0.00000000  0.60147900  1
  Li  Li4  1  0.83378450  0.50000000  0.10306200  1
  Li  Li5  1  0.51082750  0.50000000  0.00942900  1
  Li  Li6  1  0.50091100  0.50000000  0.50369300  1
  Li  Li7  1  0.16146950  0.50000000  0.60147900  1
  Ti  Ti8  1  0.41129700  0.75284800  0.78288500  1
  Ti  Ti9  1  0.41129700  0.24715200  0.78288500  1
  Ti  Ti10  1  0.82481300  0.00000000  0.27856800  1
  Ti  Ti11  1  0.91129700  0.25284800  0.78288500  1
  Ti  Ti12  1  0.91129700  0.74715200  0.78288500  1
  Ti  Ti13  1  0.32481300  0.50000000  0.27856800  1
  Fe  Fe14  1  0.33160700  0.00000000  0.50532500  1
  Fe  Fe15  1  0.66452050  0.00000000  0.00820700  1
  Fe  Fe16  1  0.83160700  0.50000000  0.50532500  1
  Fe  Fe17  1  0.16452050  0.50000000  0.00820700  1
  Cu  Cu18  1  0.17024850  0.00000000  0.78975500  1
  Cu  Cu19  1  0.58300500  0.75558200  0.29013600  1
  Cu  Cu20  1  0.58300500  0.24441800  0.29013600  1
  Cu  Cu21  1  0.67024850  0.50000000  0.78975500  1
  Cu  Cu22  1  0.08300500  0.25558200  0.29013600  1
  Cu  Cu23  1  0.08300500  0.74441800  0.29013600  1
  O  O24  1  0.41156550  0.74418950  0.40246400  1
  O  O25  1  0.48220650  0.00000000  0.66718300  1
  O  O26  1  0.34148450  0.00000000  0.89749500  1
  O  O27  1  0.00066550  0.00000000  0.69205500  1
  O  O28  1  0.00287700  0.00000000  0.19863000  1
  O  O29  1  0.41156550  0.25581050  0.40246400  1
  O  O30  1  0.26250300  0.77259500  0.65667000  1
  O  O31  1  0.26250300  0.22740500  0.65667000  1
  O  O32  1  0.83638800  0.00000000  0.89576800  1
  O  O33  1  0.16082600  0.00000000  0.40083500  1
  O  O34  1  0.74805900  0.77940000  0.15549700  1
  O  O35  1  0.74805900  0.22060000  0.15549700  1
  O  O36  1  0.66634500  0.00000000  0.39492000  1
  O  O37  1  0.57992600  0.74792900  0.90267000  1
  O  O38  1  0.52036150  0.00000000  0.16495300  1
  O  O39  1  0.57992600  0.25207100  0.90267000  1
  O  O40  1  0.91156550  0.24418950  0.40246400  1
  O  O41  1  0.98220650  0.50000000  0.66718300  1
  O  O42  1  0.84148450  0.50000000  0.89749500  1
  O  O43  1  0.50066550  0.50000000  0.69205500  1
  O  O44  1  0.50287700  0.50000000  0.19863000  1
  O  O45  1  0.91156550  0.75581050  0.40246400  1
  O  O46  1  0.76250300  0.27259500  0.65667000  1
  O  O47  1  0.76250300  0.72740500  0.65667000  1
  O  O48  1  0.33638800  0.50000000  0.89576800  1
  O  O49  1  0.66082600  0.50000000  0.40083500  1
  O  O50  1  0.24805900  0.27940000  0.15549700  1
  O  O51  1  0.24805900  0.72060000  0.15549700  1
  O  O52  1  0.16634500  0.50000000  0.39492000  1
  O  O53  1  0.07992600  0.24792900  0.90267000  1
  O  O54  1  0.02036150  0.50000000  0.16495300  1
  O  O55  1  0.07992600  0.75207100  0.90267000  1
