# generated using pymatgen
data_Li4Co3TeO8
_symmetry_space_group_name_H-M   'P 1'
_cell_length_a   6.10101814
_cell_length_b   6.10101814
_cell_length_c   14.62555715
_cell_angle_alpha   90.00000000
_cell_angle_beta   90.00000000
_cell_angle_gamma   120.00000000
_symmetry_Int_Tables_number   1
_chemical_formula_structural   Li4Co3TeO8
_chemical_formula_sum   'Li12 Co9 Te3 O24'
_cell_volume   471.46307386
_cell_formula_units_Z   3
loop_
 _symmetry_equiv_pos_site_id
 _symmetry_equiv_pos_as_xyz
  1  'x, y, z'
loop_
 _atom_site_type_symbol
 _atom_site_label
 _atom_site_symmetry_multiplicity
 _atom_site_fract_x
 _atom_site_fract_y
 _atom_site_fract_z
 _atom_site_occupancy
  Li  Li0  1  0.33333333  0.66666667  0.16666667  1
  Li  Li1  1  0.16666667  0.33333333  0.83333333  1
  Li  Li2  1  0.33333333  0.16666667  0.16666667  1
  Li  Li3  1  0.83333333  0.16666667  0.16666667  1
  Li  Li4  1  1.00000000  1.00000000  0.50000000  1
  Li  Li5  1  0.83333333  0.66666667  0.16666667  1
  Li  Li6  1  0.00000000  0.50000000  0.50000000  1
  Li  Li7  1  0.50000000  0.50000000  0.50000000  1
  Li  Li8  1  0.66666667  0.33333333  0.83333333  1
  Li  Li9  1  0.50000000  0.00000000  0.50000000  1
  Li  Li10  1  0.66666667  0.83333333  0.83333333  1
  Li  Li11  1  0.16666667  0.83333333  0.83333333  1
  Co  Co12  1  0.16666667  0.33333333  0.33333333  1
  Co  Co13  1  0.00000000  0.50000000  0.00000000  1
  Co  Co14  1  0.50000000  0.50000000  0.00000000  1
  Co  Co15  1  0.83333333  0.66666667  0.66666667  1
  Co  Co16  1  0.66666667  0.83333333  0.33333333  1
  Co  Co17  1  0.16666667  0.83333333  0.33333333  1
  Co  Co18  1  0.50000000  0.00000000  0.00000000  1
  Co  Co19  1  0.33333333  0.16666667  0.66666667  1
  Co  Co20  1  0.83333333  0.16666667  0.66666667  1
  Te  Te21  1  0.00000000  0.00000000  0.00000000  1
  Te  Te22  1  0.66666667  0.33333333  0.33333333  1
  Te  Te23  1  0.33333333  0.66666667  0.66666667  1
  O  O24  1  0.33333333  0.66666667  0.92761467  1
  O  O25  1  0.51420133  0.02840267  0.25505567  1
  O  O26  1  0.97159733  0.48579867  0.25505567  1
  O  O27  1  0.33333333  0.66666667  0.40571867  1
  O  O28  1  0.51420133  0.48579867  0.25505567  1
  O  O29  1  0.15246533  0.30493067  0.07827767  1
  O  O30  1  0.69506933  0.84753467  0.07827767  1
  O  O31  1  0.15246533  0.84753467  0.07827767  1
  O  O32  1  0.00000000  0.00000000  0.26094800  1
  O  O33  1  0.18086800  0.36173600  0.58838900  1
  O  O34  1  0.63826400  0.81913200  0.58838900  1
  O  O35  1  0.00000000  0.00000000  0.73905200  1
  O  O36  1  0.18086800  0.81913200  0.58838900  1
  O  O37  1  0.81913200  0.63826400  0.41161100  1
  O  O38  1  0.36173600  0.18086800  0.41161100  1
  O  O39  1  0.81913200  0.18086800  0.41161100  1
  O  O40  1  0.66666667  0.33333333  0.59428133  1
  O  O41  1  0.84753467  0.69506933  0.92172233  1
  O  O42  1  0.30493067  0.15246533  0.92172233  1
  O  O43  1  0.66666667  0.33333333  0.07238533  1
  O  O44  1  0.84753467  0.15246533  0.92172233  1
  O  O45  1  0.48579867  0.97159733  0.74494433  1
  O  O46  1  0.02840267  0.51420133  0.74494433  1
  O  O47  1  0.48579867  0.51420133  0.74494433  1
