# generated using pymatgen
data_Li4Mn3Fe3(CoO8)2
_symmetry_space_group_name_H-M   'P 1'
_cell_length_a   10.20012200
_cell_length_b   5.85259400
_cell_length_c   9.38052595
_cell_angle_alpha   90.00000000
_cell_angle_beta   91.06647293
_cell_angle_gamma   90.00000000
_symmetry_Int_Tables_number   1
_chemical_formula_structural   Li4Mn3Fe3(CoO8)2
_chemical_formula_sum   'Li8 Mn6 Fe6 Co4 O32'
_cell_volume   559.89387383
_cell_formula_units_Z   2
loop_
 _symmetry_equiv_pos_site_id
 _symmetry_equiv_pos_as_xyz
  1  'x, y, z'
loop_
 _atom_site_type_symbol
 _atom_site_label
 _atom_site_symmetry_multiplicity
 _atom_site_fract_x
 _atom_site_fract_y
 _atom_site_fract_z
 _atom_site_occupancy
  Li  Li0  1  0.66869700  0.00000000  0.10559300  1
  Li  Li1  1  0.99904800  0.00000000  0.00266200  1
  Li  Li2  1  0.50196100  0.50000000  0.50453400  1
  Li  Li3  1  0.83428500  0.50000000  0.60556100  1
  Li  Li4  1  0.16869700  0.50000000  0.10559300  1
  Li  Li5  1  0.49904800  0.50000000  0.00266200  1
  Li  Li6  1  0.00196100  0.00000000  0.50453400  1
  Li  Li7  1  0.33428500  0.00000000  0.60556100  1
  Mn  Mn8  1  0.82733500  0.00000000  0.78590000  1
  Mn  Mn9  1  0.91542950  0.25352650  0.28704700  1
  Mn  Mn10  1  0.91542950  0.74647350  0.28704700  1
  Mn  Mn11  1  0.32733500  0.50000000  0.78590000  1
  Mn  Mn12  1  0.41542950  0.75352650  0.28704700  1
  Mn  Mn13  1  0.41542950  0.24647350  0.28704700  1
  Fe  Fe14  1  0.58388050  0.75534250  0.78782800  1
  Fe  Fe15  1  0.58388050  0.24465750  0.78782800  1
  Fe  Fe16  1  0.66839600  0.50000000  0.28895400  1
  Fe  Fe17  1  0.08388050  0.25534250  0.78782800  1
  Fe  Fe18  1  0.08388050  0.74465750  0.78782800  1
  Fe  Fe19  1  0.16839600  0.00000000  0.28895400  1
  Co  Co20  1  0.66290400  0.00000000  0.51885100  1
  Co  Co21  1  0.83092900  0.50000000  0.01590200  1
  Co  Co22  1  0.16290400  0.50000000  0.51885100  1
  Co  Co23  1  0.33092900  0.00000000  0.01590200  1
  O  O24  1  0.58061050  0.75256050  0.39995800  1
  O  O25  1  0.52252800  0.00000000  0.65107900  1
  O  O26  1  0.67228400  0.00000000  0.89852400  1
  O  O27  1  0.99308500  0.00000000  0.69302800  1
  O  O28  1  0.99373800  0.00000000  0.19081000  1
  O  O29  1  0.58061050  0.24743950  0.39995800  1
  O  O30  1  0.74224250  0.78608050  0.65505600  1
  O  O31  1  0.74224250  0.21391950  0.65505600  1
  O  O32  1  0.66955600  0.50000000  0.90487400  1
  O  O33  1  0.83765600  0.00000000  0.39679200  1
  O  O34  1  0.76474200  0.27881200  0.15584400  1
  O  O35  1  0.76474200  0.72118800  0.15584400  1
  O  O36  1  0.84099600  0.50000000  0.39456300  1
  O  O37  1  0.91218650  0.24995450  0.90142900  1
  O  O38  1  0.97857800  0.50000000  0.16020200  1
  O  O39  1  0.91218650  0.75004550  0.90142900  1
  O  O40  1  0.08061050  0.25256050  0.39995800  1
  O  O41  1  0.02252800  0.50000000  0.65107900  1
  O  O42  1  0.17228400  0.50000000  0.89852400  1
  O  O43  1  0.49308500  0.50000000  0.69302800  1
  O  O44  1  0.49373800  0.50000000  0.19081000  1
  O  O45  1  0.08061050  0.74743950  0.39995800  1
  O  O46  1  0.24224250  0.28608050  0.65505600  1
  O  O47  1  0.24224250  0.71391950  0.65505600  1
  O  O48  1  0.16955600  0.00000000  0.90487400  1
  O  O49  1  0.33765600  0.50000000  0.39679200  1
  O  O50  1  0.26474200  0.77881200  0.15584400  1
  O  O51  1  0.26474200  0.22118800  0.15584400  1
  O  O52  1  0.34099600  0.00000000  0.39456300  1
  O  O53  1  0.41218650  0.74995450  0.90142900  1
  O  O54  1  0.47857800  0.00000000  0.16020200  1
  O  O55  1  0.41218650  0.25004550  0.90142900  1
