# generated using pymatgen
data_LiCoPO4
_symmetry_space_group_name_H-M   'P 1'
_cell_length_a   4.54832761
_cell_length_b   5.16860866
_cell_length_c   7.62412106
_cell_angle_alpha   90.32758471
_cell_angle_beta   103.50375405
_cell_angle_gamma   105.13504058
_symmetry_Int_Tables_number   1
_chemical_formula_structural   LiCoPO4
_chemical_formula_sum   'Li2 Co2 P2 O8'
_cell_volume   167.80668003
_cell_formula_units_Z   2
loop_
 _symmetry_equiv_pos_site_id
 _symmetry_equiv_pos_as_xyz
  1  'x, y, z'
loop_
 _atom_site_type_symbol
 _atom_site_label
 _atom_site_symmetry_multiplicity
 _atom_site_fract_x
 _atom_site_fract_y
 _atom_site_fract_z
 _atom_site_occupancy
  Li  Li0  1  0.73631600  0.71892300  0.99055200  1
  Li  Li1  1  0.26368400  0.28107700  0.00944800  1
  Co  Co2  1  0.93408050  0.76847000  0.60022900  1
  Co  Co3  1  0.06591950  0.23153000  0.39977100  1
  P  P4  1  0.34933050  0.80707200  0.25945600  1
  P  P5  1  0.65066950  0.19292800  0.74054400  1
  O  O6  1  0.14424950  0.61644600  0.36994800  1
  O  O7  1  0.85575050  0.38355400  0.63005200  1
  O  O8  1  0.31364400  0.08178350  0.61502600  1
  O  O9  1  0.68635600  0.91821650  0.38497400  1
  O  O10  1  0.63921500  0.33869650  0.91275700  1
  O  O11  1  0.36078500  0.66130350  0.08724300  1
  O  O12  1  0.20323000  0.04684850  0.20720300  1
  O  O13  1  0.79677000  0.95315150  0.79279700  1
