# generated using pymatgen
data_LiV3F10
_symmetry_space_group_name_H-M   'P 1'
_cell_length_a   3.98679000
_cell_length_b   6.03795700
_cell_length_c   15.57089180
_cell_angle_alpha   90.00000000
_cell_angle_beta   90.73230785
_cell_angle_gamma   90.00000000
_symmetry_Int_Tables_number   1
_chemical_formula_structural   LiV3F10
_chemical_formula_sum   'Li2 V6 F20'
_cell_volume   374.79292939
_cell_formula_units_Z   2
loop_
 _symmetry_equiv_pos_site_id
 _symmetry_equiv_pos_as_xyz
  1  'x, y, z'
loop_
 _atom_site_type_symbol
 _atom_site_label
 _atom_site_symmetry_multiplicity
 _atom_site_fract_x
 _atom_site_fract_y
 _atom_site_fract_z
 _atom_site_occupancy
  Li  Li0  1  0.09235300  0.50790800  0.60663000  1
  Li  Li1  1  0.09235300  0.49209200  0.10663000  1
  V  V2  1  0.01011700  0.94293600  0.99624800  1
  V  V3  1  0.00524500  0.96370900  0.71347500  1
  V  V4  1  0.02038600  0.49705600  0.86174600  1
  V  V5  1  0.01011700  0.05706400  0.49624800  1
  V  V6  1  0.00524500  0.03629100  0.21347500  1
  V  V7  1  0.02038600  0.50294400  0.36174600  1
  F  F8  1  0.00538600  0.22889800  0.93812200  1
  F  F9  1  0.02697800  0.23242100  0.78109700  1
  F  F10  1  0.98618900  0.20216400  0.62011400  1
  F  F11  1  0.00538600  0.77110200  0.43812200  1
  F  F12  1  0.02535800  0.81597800  0.59639700  1
  F  F13  1  0.02824300  0.63542400  0.73888100  1
  F  F14  1  0.02697800  0.76757900  0.28109700  1
  F  F15  1  0.98618900  0.79783600  0.12011400  1
  F  F16  1  0.02535800  0.18402200  0.09639700  1
  F  F17  1  0.02824300  0.36457600  0.23888100  1
  F  F18  1  0.07615200  0.60603700  0.98788600  1
  F  F19  1  0.07615200  0.39396300  0.48788600  1
  F  F20  1  0.52007500  0.49766500  0.86037500  1
  F  F21  1  0.50932200  0.95725500  0.71467500  1
  F  F22  1  0.51142100  0.05359300  0.50363300  1
  F  F23  1  0.52007500  0.50233500  0.36037500  1
  F  F24  1  0.50932200  0.04274500  0.21467500  1
  F  F25  1  0.51142100  0.94640700  0.00363300  1
  F  F26  1  0.97094200  0.84192800  0.87015300  1
  F  F27  1  0.97094200  0.15807200  0.37015300  1
