# generated using pymatgen
data_VOF
_symmetry_space_group_name_H-M   'P 1'
_cell_length_a   3.44078587
_cell_length_b   3.44078587
_cell_length_c   18.06092800
_cell_angle_alpha   90.00000000
_cell_angle_beta   90.00000000
_cell_angle_gamma   120.00000000
_symmetry_Int_Tables_number   1
_chemical_formula_structural   VOF
_chemical_formula_sum   'V6 O6 F6'
_cell_volume   185.17654892
_cell_formula_units_Z   6
loop_
 _symmetry_equiv_pos_site_id
 _symmetry_equiv_pos_as_xyz
  1  'x, y, z'
loop_
 _atom_site_type_symbol
 _atom_site_label
 _atom_site_symmetry_multiplicity
 _atom_site_fract_x
 _atom_site_fract_y
 _atom_site_fract_z
 _atom_site_occupancy
  V  V0  1  0.00000000  0.00000000  0.23946300  1
  V  V1  1  0.66666667  0.33333333  0.09387033  1
  V  V2  1  0.66666667  0.33333333  0.57279633  1
  V  V3  1  0.33333333  0.66666667  0.42720367  1
  V  V4  1  0.33333333  0.66666667  0.90612967  1
  V  V5  1  0.00000000  0.00000000  0.76053700  1
  O  O6  1  0.00000000  0.00000000  0.12491400  1
  O  O7  1  0.66666667  0.33333333  0.20841933  1
  O  O8  1  0.66666667  0.33333333  0.45824733  1
  O  O9  1  0.33333333  0.66666667  0.54175267  1
  O  O10  1  0.33333333  0.66666667  0.79158067  1
  O  O11  1  0.00000000  1.00000000  0.87508600  1
  F  F12  1  0.33333333  0.66666667  0.04001633  1
  F  F13  1  0.33333333  0.66666667  0.29331700  1
  F  F14  1  0.00000000  0.00000000  0.37334967  1
  F  F15  1  0.00000000  0.00000000  0.62665033  1
  F  F16  1  0.66666667  0.33333333  0.70668300  1
  F  F17  1  0.66666667  0.33333333  0.95998367  1
