# generated using pymatgen
data_NbFe3Co2(PO4)6
_symmetry_space_group_name_H-M   'P 1'
_cell_length_a   8.69140021
_cell_length_b   8.69140021
_cell_length_c   20.88049752
_cell_angle_alpha   90.00000000
_cell_angle_beta   90.00000000
_cell_angle_gamma   120.00000000
_symmetry_Int_Tables_number   1
_chemical_formula_structural   NbFe3Co2(PO4)6
_chemical_formula_sum   'Nb3 Fe9 Co6 P18 O72'
_cell_volume   1366.00085328
_cell_formula_units_Z   3
loop_
 _symmetry_equiv_pos_site_id
 _symmetry_equiv_pos_as_xyz
  1  'x, y, z'
loop_
 _atom_site_type_symbol
 _atom_site_label
 _atom_site_symmetry_multiplicity
 _atom_site_fract_x
 _atom_site_fract_y
 _atom_site_fract_z
 _atom_site_occupancy
  Nb  Nb0  1  0.33333333  0.66666667  0.52444967  1
  Nb  Nb1  1  0.00000000  0.00000000  0.85778300  1
  Nb  Nb2  1  0.66666667  0.33333333  0.19111633  1
  Fe  Fe3  1  0.33333333  0.66666667  0.02217067  1
  Fe  Fe4  1  0.33333333  0.66666667  0.81298067  1
  Fe  Fe5  1  0.33333333  0.66666667  0.31074567  1
  Fe  Fe6  1  0.00000000  0.00000000  0.35550400  1
  Fe  Fe7  1  0.00000000  0.00000000  0.14631400  1
  Fe  Fe8  1  0.00000000  0.00000000  0.64407900  1
  Fe  Fe9  1  0.66666667  0.33333333  0.68883733  1
  Fe  Fe10  1  0.66666667  0.33333333  0.47964733  1
  Fe  Fe11  1  0.66666667  0.33333333  0.97741233  1
  Co  Co12  1  0.33333333  0.66666667  0.67373867  1
  Co  Co13  1  0.33333333  0.66666667  0.16702567  1
  Co  Co14  1  0.00000000  0.00000000  0.00707200  1
  Co  Co15  1  0.00000000  0.00000000  0.50035900  1
  Co  Co16  1  0.66666667  0.33333333  0.34040533  1
  Co  Co17  1  0.66666667  0.33333333  0.83369233  1
  P  P18  1  0.66535000  0.63172600  0.08104900  1
  P  P19  1  0.96637600  0.33465000  0.08104900  1
  P  P20  1  0.36827400  0.03362400  0.08104900  1
  P  P21  1  0.28883800  0.29563000  0.25007000  1
  P  P22  1  0.70437000  0.99320800  0.25007000  1
  P  P23  1  0.00679200  0.71116200  0.25007000  1
  P  P24  1  0.33201667  0.96505933  0.41438233  1
  P  P25  1  0.63304267  0.66798333  0.41438233  1
  P  P26  1  0.03494067  0.36695733  0.41438233  1
  P  P27  1  0.95550467  0.62896333  0.58340333  1
  P  P28  1  0.37103667  0.32654133  0.58340333  1
  P  P29  1  0.67345867  0.04449533  0.58340333  1
  P  P30  1  0.99868333  0.29839267  0.74771567  1
  P  P31  1  0.29970933  0.00131667  0.74771567  1
  P  P32  1  0.70160733  0.70029067  0.74771567  1
  P  P33  1  0.62217133  0.96229667  0.91673667  1
  P  P34  1  0.03770333  0.65987467  0.91673667  1
  P  P35  1  0.34012533  0.37782867  0.91673667  1
  O  O36  1  0.53293733  0.67274767  0.35579567  1
  O  O37  1  0.13981033  0.46706267  0.35579567  1
  O  O38  1  0.32725233  0.86018967  0.35579567  1
  O  O39  1  0.83368167  0.81827133  0.07632833  1
  O  O40  1  0.34126633  0.86089467  0.47522267  1
  O  O41  1  0.49885533  0.64809567  0.09240467  1
  O  O42  1  0.98458967  0.16631833  0.07632833  1
  O  O43  1  0.14924033  0.50114467  0.09240467  1
  O  O44  1  0.19859767  0.19344233  0.18925133  1
  O  O45  1  0.35190433  0.85075967  0.09240467  1
  O  O46  1  0.48285933  0.31883567  0.25619767  1
  O  O47  1  0.80655767  0.00515533  0.18925133  1
  O  O48  1  0.51962833  0.65873367  0.47522267  1
  O  O49  1  0.18172867  0.01541033  0.07632833  1
  O  O50  1  0.31561700  0.48452900  0.24232200  1
  O  O51  1  0.13910533  0.48037167  0.47522267  1
  O  O52  1  0.51547100  0.83108800  0.24232200  1
  O  O53  1  0.68116433  0.16402367  0.25619767  1
  O  O54  1  0.16891200  0.68438300  0.24232200  1
  O  O55  1  0.99484467  0.80140233  0.18925133  1
  O  O56  1  0.83597633  0.51714067  0.25619767  1
  O  O57  1  0.33713067  0.47209133  0.97766133  1
  O  O58  1  0.52790867  0.86503933  0.97766133  1
  O  O59  1  0.13496067  0.66286933  0.97766133  1
  O  O60  1  0.19960400  0.00608100  0.68912900  1
  O  O61  1  0.80647700  0.80039600  0.68912900  1
  O  O62  1  0.99391900  0.19352300  0.68912900  1
  O  O63  1  0.50034833  0.15160467  0.40966167  1
  O  O64  1  0.00793300  0.19422800  0.80855600  1
  O  O65  1  0.16552200  0.98142900  0.42573800  1
  O  O66  1  0.65125633  0.49965167  0.40966167  1
  O  O67  1  0.81590700  0.83447800  0.42573800  1
  O  O68  1  0.86526433  0.52677567  0.52258467  1
  O  O69  1  0.01857100  0.18409300  0.42573800  1
  O  O70  1  0.14952600  0.65216900  0.58953100  1
  O  O71  1  0.47322433  0.33848867  0.52258467  1
  O  O72  1  0.18629500  0.99206700  0.80855600  1
  O  O73  1  0.84839533  0.34874367  0.40966167  1
  O  O74  1  0.98228367  0.81786233  0.57565533  1
  O  O75  1  0.80577200  0.81370500  0.80855600  1
  O  O76  1  0.18213767  0.16442133  0.57565533  1
  O  O77  1  0.34783100  0.49735700  0.58953100  1
  O  O78  1  0.83557867  0.01771633  0.57565533  1
  O  O79  1  0.66151133  0.13473567  0.52258467  1
  O  O80  1  0.50264300  0.85047400  0.58953100  1
  O  O81  1  0.00379733  0.80542467  0.31099467  1
  O  O82  1  0.19457533  0.19837267  0.31099467  1
  O  O83  1  0.80162733  0.99620267  0.31099467  1
  O  O84  1  0.86627067  0.33941433  0.02246233  1
  O  O85  1  0.47314367  0.13372933  0.02246233  1
  O  O86  1  0.66058567  0.52685633  0.02246233  1
  O  O87  1  0.16701500  0.48493800  0.74299500  1
  O  O88  1  0.67459967  0.52756133  0.14188933  1
  O  O89  1  0.83218867  0.31476233  0.75907133  1
  O  O90  1  0.31792300  0.83298500  0.74299500  1
  O  O91  1  0.48257367  0.16781133  0.75907133  1
  O  O92  1  0.53193100  0.86010900  0.85591800  1
  O  O93  1  0.68523767  0.51742633  0.75907133  1
  O  O94  1  0.81619267  0.98550233  0.92286433  1
  O  O95  1  0.13989100  0.67182200  0.85591800  1
  O  O96  1  0.85296167  0.32540033  0.14188933  1
  O  O97  1  0.51506200  0.68207700  0.74299500  1
  O  O98  1  0.64895033  0.15119567  0.90898867  1
  O  O99  1  0.47243867  0.14703833  0.14188933  1
  O  O100  1  0.84880433  0.49775467  0.90898867  1
  O  O101  1  0.01449767  0.83069033  0.92286433  1
  O  O102  1  0.50224533  0.35104967  0.90898867  1
  O  O103  1  0.32817800  0.46806900  0.85591800  1
  O  O104  1  0.16930967  0.18380733  0.92286433  1
  O  O105  1  0.67046400  0.13875800  0.64432800  1
  O  O106  1  0.86124200  0.53170600  0.64432800  1
  O  O107  1  0.46829400  0.32953600  0.64432800  1
