# generated using pymatgen
data_V2OF4
_symmetry_space_group_name_H-M   'P 1'
_cell_length_a   12.82249727
_cell_length_b   4.92698817
_cell_length_c   5.71055409
_cell_angle_alpha   90.00000000
_cell_angle_beta   102.94169910
_cell_angle_gamma   90.00000000
_symmetry_Int_Tables_number   1
_chemical_formula_structural   V2OF4
_chemical_formula_sum   'V8 O4 F16'
_cell_volume   351.60747883
_cell_formula_units_Z   4
loop_
 _symmetry_equiv_pos_site_id
 _symmetry_equiv_pos_as_xyz
  1  'x, y, z'
loop_
 _atom_site_type_symbol
 _atom_site_label
 _atom_site_symmetry_multiplicity
 _atom_site_fract_x
 _atom_site_fract_y
 _atom_site_fract_z
 _atom_site_occupancy
  V  V0  1  0.36291250  0.25232050  0.71315500  1
  V  V1  1  0.36291250  0.74767950  0.21315500  1
  V  V2  1  0.13708750  0.75232050  0.78684500  1
  V  V3  1  0.13708750  0.24767950  0.28684500  1
  V  V4  1  0.86291250  0.75232050  0.71315500  1
  V  V5  1  0.86291250  0.24767950  0.21315500  1
  V  V6  1  0.63708750  0.25232050  0.78684500  1
  V  V7  1  0.63708750  0.74767950  0.28684500  1
  O  O8  1  0.50000000  0.36916100  0.75000000  1
  O  O9  1  0.50000000  0.63083900  0.25000000  1
  O  O10  1  0.00000000  0.86916100  0.75000000  1
  O  O11  1  0.00000000  0.13083900  0.25000000  1
  F  F12  1  0.38296700  0.07781200  0.03674200  1
  F  F13  1  0.38296700  0.92218800  0.53674200  1
  F  F14  1  0.29796550  0.57584850  0.86828700  1
  F  F15  1  0.29796550  0.42415150  0.36828700  1
  F  F16  1  0.20203450  0.07584850  0.63171300  1
  F  F17  1  0.20203450  0.92415150  0.13171300  1
  F  F18  1  0.11703300  0.57781200  0.46325800  1
  F  F19  1  0.11703300  0.42218800  0.96325800  1
  F  F20  1  0.88296700  0.57781200  0.03674200  1
  F  F21  1  0.88296700  0.42218800  0.53674200  1
  F  F22  1  0.79796550  0.07584850  0.86828700  1
  F  F23  1  0.79796550  0.92415150  0.36828700  1
  F  F24  1  0.70203450  0.57584850  0.63171300  1
  F  F25  1  0.70203450  0.42415150  0.13171300  1
  F  F26  1  0.61703300  0.07781200  0.46325800  1
  F  F27  1  0.61703300  0.92218800  0.96325800  1
