# generated using pymatgen
data_WOF4
_symmetry_space_group_name_H-M   'P 1'
_cell_length_a   19.68921200
_cell_length_b   5.79615200
_cell_length_c   15.24578744
_cell_angle_alpha   90.00000000
_cell_angle_beta   113.51271046
_cell_angle_gamma   90.00000000
_symmetry_Int_Tables_number   1
_chemical_formula_structural   WOF4
_chemical_formula_sum   'W16 O16 F64'
_cell_volume   1595.41563426
_cell_formula_units_Z   16
loop_
 _symmetry_equiv_pos_site_id
 _symmetry_equiv_pos_as_xyz
  1  'x, y, z'
loop_
 _atom_site_type_symbol
 _atom_site_label
 _atom_site_symmetry_multiplicity
 _atom_site_fract_x
 _atom_site_fract_y
 _atom_site_fract_z
 _atom_site_occupancy
  W  W0  1  0.61070450  0.91002250  0.18174100  1
  W  W1  1  0.86652650  0.09519150  0.61227600  1
  W  W2  1  0.88929550  0.41002250  0.31825900  1
  W  W3  1  0.86652650  0.90480850  0.11227600  1
  W  W4  1  0.13347350  0.09519150  0.88772400  1
  W  W5  1  0.11070450  0.58997750  0.68174100  1
  W  W6  1  0.13347350  0.90480850  0.38772400  1
  W  W7  1  0.38929550  0.08997750  0.81825900  1
  W  W8  1  0.11070450  0.41002250  0.18174100  1
  W  W9  1  0.36652650  0.59519150  0.61227600  1
  W  W10  1  0.38929550  0.91002250  0.31825900  1
  W  W11  1  0.36652650  0.40480850  0.11227600  1
  W  W12  1  0.63347350  0.59519150  0.88772400  1
  W  W13  1  0.61070450  0.08997750  0.68174100  1
  W  W14  1  0.63347350  0.40480850  0.38772400  1
  W  W15  1  0.88929550  0.58997750  0.81825900  1
  O  O16  1  0.63032300  0.12088300  0.11710600  1
  O  O17  1  0.82676000  0.89468800  0.52436500  1
  O  O18  1  0.86967700  0.62088300  0.38289400  1
  O  O19  1  0.82676000  0.10531200  0.02436500  1
  O  O20  1  0.17324000  0.89468800  0.97563500  1
  O  O21  1  0.13032300  0.37911700  0.61710600  1
  O  O22  1  0.17324000  0.10531200  0.47563500  1
  O  O23  1  0.36967700  0.87911700  0.88289400  1
  O  O24  1  0.13032300  0.62088300  0.11710600  1
  O  O25  1  0.32676000  0.39468800  0.52436500  1
  O  O26  1  0.36967700  0.12088300  0.38289400  1
  O  O27  1  0.32676000  0.60531200  0.02436500  1
  O  O28  1  0.67324000  0.39468800  0.97563500  1
  O  O29  1  0.63032300  0.87911700  0.61710600  1
  O  O30  1  0.67324000  0.60531200  0.47563500  1
  O  O31  1  0.86967700  0.37911700  0.88289400  1
  F  F32  1  0.62808850  0.64485150  0.12304800  1
  F  F33  1  0.70554800  0.37308800  0.33559600  1
  F  F34  1  0.70251300  0.87411000  0.28666100  1
  F  F35  1  0.83210450  0.36631550  0.54043100  1
  F  F36  1  0.91684550  0.38742950  0.73286700  1
  F  F37  1  0.91497800  0.87969900  0.72028300  1
  F  F38  1  0.99215600  0.63085800  0.88608700  1
  F  F39  1  0.79748700  0.37411000  0.21333900  1
  F  F40  1  0.79445200  0.87308800  0.16440400  1
  F  F41  1  0.87191150  0.14485150  0.37695200  1
  F  F42  1  0.03872600  0.13627100  0.88822600  1
  F  F43  1  0.96127400  0.13627100  0.61177400  1
  F  F44  1  0.00784400  0.63085800  0.61391300  1
  F  F45  1  0.83210450  0.63368450  0.04043100  1
  F  F46  1  0.08502200  0.87969900  0.77971700  1
  F  F47  1  0.08315450  0.38742950  0.76713300  1
  F  F48  1  0.91684550  0.61257050  0.23286700  1
  F  F49  1  0.91497800  0.12030100  0.22028300  1
  F  F50  1  0.16789550  0.36631550  0.95956900  1
  F  F51  1  0.99215600  0.36914200  0.38608700  1
  F  F52  1  0.03872600  0.86372900  0.38822600  1
  F  F53  1  0.96127400  0.86372900  0.11177400  1
  F  F54  1  0.12808850  0.85514850  0.62304800  1
  F  F55  1  0.20554800  0.12691200  0.83559600  1
  F  F56  1  0.20251300  0.62589000  0.78666100  1
  F  F57  1  0.00784400  0.36914200  0.11391300  1
  F  F58  1  0.08502200  0.12030100  0.27971700  1
  F  F59  1  0.08315450  0.61257050  0.26713300  1
  F  F60  1  0.16789550  0.63368450  0.45956900  1
  F  F61  1  0.29748700  0.12589000  0.71333900  1
  F  F62  1  0.29445200  0.62691200  0.66440400  1
  F  F63  1  0.37191150  0.35514850  0.87695200  1
  F  F64  1  0.12808850  0.14485150  0.12304800  1
  F  F65  1  0.20554800  0.87308800  0.33559600  1
  F  F66  1  0.20251300  0.37411000  0.28666100  1
  F  F67  1  0.33210450  0.86631550  0.54043100  1
  F  F68  1  0.41684550  0.88742950  0.73286700  1
  F  F69  1  0.41497800  0.37969900  0.72028300  1
  F  F70  1  0.49215600  0.13085800  0.88608700  1
  F  F71  1  0.29748700  0.87411000  0.21333900  1
  F  F72  1  0.29445200  0.37308800  0.16440400  1
  F  F73  1  0.37191150  0.64485150  0.37695200  1
  F  F74  1  0.53872600  0.63627100  0.88822600  1
  F  F75  1  0.46127400  0.63627100  0.61177400  1
  F  F76  1  0.50784400  0.13085800  0.61391300  1
  F  F77  1  0.33210450  0.13368450  0.04043100  1
  F  F78  1  0.58502200  0.37969900  0.77971700  1
  F  F79  1  0.58315450  0.88742950  0.76713300  1
  F  F80  1  0.41684550  0.11257050  0.23286700  1
  F  F81  1  0.41497800  0.62030100  0.22028300  1
  F  F82  1  0.66789550  0.86631550  0.95956900  1
  F  F83  1  0.49215600  0.86914200  0.38608700  1
  F  F84  1  0.53872600  0.36372900  0.38822600  1
  F  F85  1  0.46127400  0.36372900  0.11177400  1
  F  F86  1  0.62808850  0.35514850  0.62304800  1
  F  F87  1  0.70554800  0.62691200  0.83559600  1
  F  F88  1  0.70251300  0.12589000  0.78666100  1
  F  F89  1  0.50784400  0.86914200  0.11391300  1
  F  F90  1  0.58502200  0.62030100  0.27971700  1
  F  F91  1  0.58315450  0.11257050  0.26713300  1
  F  F92  1  0.66789550  0.13368450  0.45956900  1
  F  F93  1  0.79748700  0.62589000  0.71333900  1
  F  F94  1  0.79445200  0.12691200  0.66440400  1
  F  F95  1  0.87191150  0.85514850  0.87695200  1
