# generated using pymatgen
data_Li4Mn3Nb2Ni3O16
_symmetry_space_group_name_H-M   'P 1'
_cell_length_a   10.30259800
_cell_length_b   5.88477400
_cell_length_c   9.64334594
_cell_angle_alpha   90.00000000
_cell_angle_beta   90.68983477
_cell_angle_gamma   90.00000000
_symmetry_Int_Tables_number   1
_chemical_formula_structural   Li4Mn3Nb2Ni3O16
_chemical_formula_sum   'Li8 Mn6 Nb4 Ni6 O32'
_cell_volume   584.61884606
_cell_formula_units_Z   2
loop_
 _symmetry_equiv_pos_site_id
 _symmetry_equiv_pos_as_xyz
  1  'x, y, z'
loop_
 _atom_site_type_symbol
 _atom_site_label
 _atom_site_symmetry_multiplicity
 _atom_site_fract_x
 _atom_site_fract_y
 _atom_site_fract_z
 _atom_site_occupancy
  Li  Li0  1  0.66393100  0.00000000  0.89803300  1
  Li  Li1  1  0.50184000  0.50000000  0.98929200  1
  Li  Li2  1  0.50362500  0.50000000  0.49597900  1
  Li  Li3  1  0.82728600  0.50000000  0.40181900  1
  Li  Li4  1  0.16393100  0.50000000  0.89803300  1
  Li  Li5  1  0.00184000  0.00000000  0.98929200  1
  Li  Li6  1  0.00362500  0.00000000  0.49597900  1
  Li  Li7  1  0.32728600  0.00000000  0.40181900  1
  Mn  Mn8  1  0.58711500  0.24723600  0.21556300  1
  Mn  Mn9  1  0.58711500  0.75276400  0.21556300  1
  Mn  Mn10  1  0.67244200  0.50000000  0.71924600  1
  Mn  Mn11  1  0.08711500  0.74723600  0.21556300  1
  Mn  Mn12  1  0.08711500  0.25276400  0.21556300  1
  Mn  Mn13  1  0.17244200  0.00000000  0.71924600  1
  Nb  Nb14  1  0.67026400  0.00000000  0.49830100  1
  Nb  Nb15  1  0.84814700  0.50000000  0.98550700  1
  Nb  Nb16  1  0.17026400  0.50000000  0.49830100  1
  Nb  Nb17  1  0.34814700  0.00000000  0.98550700  1
  Ni  Ni18  1  0.83076600  0.00000000  0.21419300  1
  Ni  Ni19  1  0.91558350  0.74683650  0.71262100  1
  Ni  Ni20  1  0.91558350  0.25316350  0.71262100  1
  Ni  Ni21  1  0.33076600  0.50000000  0.21419300  1
  Ni  Ni22  1  0.41558350  0.24683650  0.71262100  1
  Ni  Ni23  1  0.41558350  0.75316350  0.71262100  1
  O  O24  1  0.59061750  0.25391650  0.59471400  1
  O  O25  1  0.51742000  0.00000000  0.33015300  1
  O  O26  1  0.65714600  0.00000000  0.11017400  1
  O  O27  1  0.50755700  0.50000000  0.30768400  1
  O  O28  1  0.50799500  0.50000000  0.80427300  1
  O  O29  1  0.59061750  0.74608350  0.59471400  1
  O  O30  1  0.73010500  0.22838600  0.33877900  1
  O  O31  1  0.73010500  0.77161400  0.33877900  1
  O  O32  1  0.66140100  0.50000000  0.10502800  1
  O  O33  1  0.83422800  0.00000000  0.58121600  1
  O  O34  1  0.74948400  0.71535300  0.84430700  1
  O  O35  1  0.74948400  0.28464700  0.84430700  1
  O  O36  1  0.82477900  0.50000000  0.60981200  1
  O  O37  1  0.92152950  0.74883850  0.09566500  1
  O  O38  1  0.98206700  0.50000000  0.85382500  1
  O  O39  1  0.92152950  0.25116150  0.09566500  1
  O  O40  1  0.09061750  0.75391650  0.59471400  1
  O  O41  1  0.01742000  0.50000000  0.33015300  1
  O  O42  1  0.15714600  0.50000000  0.11017400  1
  O  O43  1  0.00755700  0.00000000  0.30768400  1
  O  O44  1  0.00799500  0.00000000  0.80427300  1
  O  O45  1  0.09061750  0.24608350  0.59471400  1
  O  O46  1  0.23010500  0.72838600  0.33877900  1
  O  O47  1  0.23010500  0.27161400  0.33877900  1
  O  O48  1  0.16140100  0.00000000  0.10502800  1
  O  O49  1  0.33422800  0.50000000  0.58121600  1
  O  O50  1  0.24948400  0.21535300  0.84430700  1
  O  O51  1  0.24948400  0.78464700  0.84430700  1
  O  O52  1  0.32477900  0.00000000  0.60981200  1
  O  O53  1  0.42152950  0.24883850  0.09566500  1
  O  O54  1  0.48206700  0.00000000  0.85382500  1
  O  O55  1  0.42152950  0.75116150  0.09566500  1
