# generated using pymatgen
data_Ti3FeCu2(PO4)6
_symmetry_space_group_name_H-M   'P 1'
_cell_length_a   8.62812791
_cell_length_b   8.62812791
_cell_length_c   21.09366261
_cell_angle_alpha   90.00000000
_cell_angle_beta   90.00000000
_cell_angle_gamma   120.00000000
_symmetry_Int_Tables_number   1
_chemical_formula_structural   Ti3FeCu2(PO4)6
_chemical_formula_sum   'Ti9 Fe3 Cu6 P18 O72'
_cell_volume   1359.92756448
_cell_formula_units_Z   3
loop_
 _symmetry_equiv_pos_site_id
 _symmetry_equiv_pos_as_xyz
  1  'x, y, z'
loop_
 _atom_site_type_symbol
 _atom_site_label
 _atom_site_symmetry_multiplicity
 _atom_site_fract_x
 _atom_site_fract_y
 _atom_site_fract_z
 _atom_site_occupancy
  Ti  Ti0  1  0.33333333  0.66666667  0.80948367  1
  Ti  Ti1  1  0.33333333  0.66666667  0.02333467  1
  Ti  Ti2  1  0.33333333  0.66666667  0.31021167  1
  Ti  Ti3  1  0.00000000  0.00000000  0.14281700  1
  Ti  Ti4  1  0.00000000  0.00000000  0.35666800  1
  Ti  Ti5  1  0.00000000  0.00000000  0.64354500  1
  Ti  Ti6  1  0.66666667  0.33333333  0.47615033  1
  Ti  Ti7  1  0.66666667  0.33333333  0.69000133  1
  Ti  Ti8  1  0.66666667  0.33333333  0.97687833  1
  Fe  Fe9  1  0.33333333  0.66666667  0.52299667  1
  Fe  Fe10  1  0.00000000  0.00000000  0.85633000  1
  Fe  Fe11  1  0.66666667  0.33333333  0.18966333  1
  Cu  Cu12  1  0.33333333  0.66666667  0.66479167  1
  Cu  Cu13  1  0.33333333  0.66666667  0.16634667  1
  Cu  Cu14  1  0.00000000  0.00000000  0.99812500  1
  Cu  Cu15  1  0.00000000  0.00000000  0.49968000  1
  Cu  Cu16  1  0.66666667  0.33333333  0.33145833  1
  Cu  Cu17  1  0.66666667  0.33333333  0.83301333  1
  P  P18  1  0.29295733  0.29195967  0.25016467  1
  P  P19  1  0.70804033  0.00099767  0.25016467  1
  P  P20  1  0.99900233  0.70704267  0.25016467  1
  P  P21  1  0.66730333  0.62542067  0.08391167  1
  P  P22  1  0.95811733  0.33269667  0.08391167  1
  P  P23  1  0.37457933  0.04188267  0.08391167  1
  P  P24  1  0.95962400  0.62529300  0.58349800  1
  P  P25  1  0.37470700  0.33433100  0.58349800  1
  P  P26  1  0.66566900  0.04037600  0.58349800  1
  P  P27  1  0.33397000  0.95875400  0.41724500  1
  P  P28  1  0.62478400  0.66603000  0.41724500  1
  P  P29  1  0.04124600  0.37521600  0.41724500  1
  P  P30  1  0.62629067  0.95862633  0.91683133  1
  P  P31  1  0.04137367  0.66766433  0.91683133  1
  P  P32  1  0.33233567  0.37370933  0.91683133  1
  P  P33  1  0.00063667  0.29208733  0.75057833  1
  P  P34  1  0.29145067  0.99936333  0.75057833  1
  P  P35  1  0.70791267  0.70854933  0.75057833  1
  O  O36  1  0.33619633  0.48101267  0.97600667  1
  O  O37  1  0.51898733  0.85518367  0.97600667  1
  O  O38  1  0.83634400  0.81470200  0.07898200  1
  O  O39  1  0.14481633  0.66380367  0.97600667  1
  O  O40  1  0.66378300  0.52716200  0.14387400  1
  O  O41  1  0.49914733  0.64783567  0.08531767  1
  O  O42  1  0.97835800  0.16365600  0.07898200  1
  O  O43  1  0.14868833  0.50085267  0.08531767  1
  O  O44  1  0.52098700  0.85528200  0.85703100  1
  O  O45  1  0.35216433  0.85131167  0.08531767  1
  O  O46  1  0.47859900  0.30971900  0.25555200  1
  O  O47  1  0.14471800  0.66570500  0.85703100  1
  O  O48  1  0.86337900  0.33621700  0.14387400  1
  O  O49  1  0.18529800  0.02164200  0.07898200  1
  O  O50  1  0.30934867  0.47959833  0.24625033  1
  O  O51  1  0.47283800  0.13662100  0.14387400  1
  O  O52  1  0.52040167  0.82975033  0.24625033  1
  O  O53  1  0.69028100  0.16888000  0.25555200  1
  O  O54  1  0.17024967  0.69065133  0.24625033  1
  O  O55  1  0.33429500  0.47901300  0.85703100  1
  O  O56  1  0.51984867  0.66447033  0.35718733  1
  O  O57  1  0.83112000  0.52140100  0.25555200  1
  O  O58  1  0.14462167  0.48015133  0.35718733  1
  O  O59  1  0.33552967  0.85537833  0.35718733  1
  O  O60  1  0.00286300  0.81434600  0.30934000  1
  O  O61  1  0.18565400  0.18851700  0.30934000  1
  O  O62  1  0.50301067  0.14803533  0.41231533  1
  O  O63  1  0.81148300  0.99713700  0.30934000  1
  O  O64  1  0.33044967  0.86049533  0.47720733  1
  O  O65  1  0.16581400  0.98116900  0.41865100  1
  O  O66  1  0.64502467  0.49698933  0.41231533  1
  O  O67  1  0.81535500  0.83418600  0.41865100  1
  O  O68  1  0.18765367  0.18861533  0.19036433  1
  O  O69  1  0.01883100  0.18464500  0.41865100  1
  O  O70  1  0.14526567  0.64305233  0.58888533  1
  O  O71  1  0.81138467  0.99903833  0.19036433  1
  O  O72  1  0.53004567  0.66955033  0.47720733  1
  O  O73  1  0.85196467  0.35497533  0.41231533  1
  O  O74  1  0.97601533  0.81293167  0.57958367  1
  O  O75  1  0.13950467  0.46995433  0.47720733  1
  O  O76  1  0.18706833  0.16308367  0.57958367  1
  O  O77  1  0.35694767  0.50221333  0.58888533  1
  O  O78  1  0.83691633  0.02398467  0.57958367  1
  O  O79  1  0.00096167  0.81234633  0.19036433  1
  O  O80  1  0.18651533  0.99780367  0.69052067  1
  O  O81  1  0.49778667  0.85473433  0.58888533  1
  O  O82  1  0.81128833  0.81348467  0.69052067  1
  O  O83  1  0.00219633  0.18871167  0.69052067  1
  O  O84  1  0.66952967  0.14767933  0.64267333  1
  O  O85  1  0.85232067  0.52185033  0.64267333  1
  O  O86  1  0.16967733  0.48136867  0.74564867  1
  O  O87  1  0.47814967  0.33047033  0.64267333  1
  O  O88  1  0.99711633  0.19382867  0.81054067  1
  O  O89  1  0.83248067  0.31450233  0.75198433  1
  O  O90  1  0.31169133  0.83032267  0.74564867  1
  O  O91  1  0.48202167  0.16751933  0.75198433  1
  O  O92  1  0.85432033  0.52194867  0.52369767  1
  O  O93  1  0.68549767  0.51797833  0.75198433  1
  O  O94  1  0.81193233  0.97638567  0.92221867  1
  O  O95  1  0.47805133  0.33237167  0.52369767  1
  O  O96  1  0.19671233  0.00288367  0.81054067  1
  O  O97  1  0.51863133  0.68830867  0.74564867  1
  O  O98  1  0.64268200  0.14626500  0.91291700  1
  O  O99  1  0.80617133  0.80328767  0.81054067  1
  O  O100  1  0.85373500  0.49641700  0.91291700  1
  O  O101  1  0.02361433  0.83554667  0.92221867  1
  O  O102  1  0.50358300  0.35731800  0.91291700  1
  O  O103  1  0.66762833  0.14567967  0.52369767  1
  O  O104  1  0.85318200  0.33113700  0.02385400  1
  O  O105  1  0.16445333  0.18806767  0.92221867  1
  O  O106  1  0.47795500  0.14681800  0.02385400  1
  O  O107  1  0.66886300  0.52204500  0.02385400  1
