# generated using pymatgen
data_BaMnO3
_symmetry_space_group_name_H-M   'P 1'
_cell_length_a   5.75968789
_cell_length_b   5.75968789
_cell_length_c   14.31339500
_cell_angle_alpha   90.00000000
_cell_angle_beta   90.00000000
_cell_angle_gamma   120.00000000
_symmetry_Int_Tables_number   1
_chemical_formula_structural   BaMnO3
_chemical_formula_sum   'Ba6 Mn6 O18'
_cell_volume   411.21712151
_cell_formula_units_Z   6
loop_
 _symmetry_equiv_pos_site_id
 _symmetry_equiv_pos_as_xyz
  1  'x, y, z'
loop_
 _atom_site_type_symbol
 _atom_site_label
 _atom_site_symmetry_multiplicity
 _atom_site_fract_x
 _atom_site_fract_y
 _atom_site_fract_z
 _atom_site_occupancy
  Ba  Ba0  1  0.00000000  0.00000000  0.16826800  1
  Ba  Ba1  1  0.00000000  0.00000000  0.50000000  1
  Ba  Ba2  1  0.00000000  0.00000000  0.83173200  1
  Ba  Ba3  1  0.66666667  0.33333333  0.00000000  1
  Ba  Ba4  1  0.33333333  0.66666667  0.66449300  1
  Ba  Ba5  1  0.33333333  0.66666667  0.33550700  1
  Mn  Mn6  1  0.66666667  0.33333333  0.23511000  1
  Mn  Mn7  1  0.66666667  0.33333333  0.41239800  1
  Mn  Mn8  1  0.66666667  0.33333333  0.58760200  1
  Mn  Mn9  1  0.66666667  0.33333333  0.76489000  1
  Mn  Mn10  1  0.33333333  0.66666667  0.90919500  1
  Mn  Mn11  1  0.33333333  0.66666667  0.09080500  1
  O  O12  1  0.62343000  0.81171500  0.00000000  1
  O  O13  1  0.81427700  0.18572300  0.32648600  1
  O  O14  1  0.81427700  0.18572300  0.67351400  1
  O  O15  1  0.81427700  0.62855400  0.32648600  1
  O  O16  1  0.81427700  0.62855400  0.67351400  1
  O  O17  1  0.37144600  0.18572300  0.32648600  1
  O  O18  1  0.37144600  0.18572300  0.67351400  1
  O  O19  1  0.18828500  0.81171500  0.00000000  1
  O  O20  1  0.96472200  0.48236100  0.50000000  1
  O  O21  1  0.00146400  0.50073200  0.16508800  1
  O  O22  1  0.00146400  0.50073200  0.83491200  1
  O  O23  1  0.18828500  0.37657000  0.00000000  1
  O  O24  1  0.49926800  0.99853600  0.16508800  1
  O  O25  1  0.51763900  0.03527800  0.50000000  1
  O  O26  1  0.49926800  0.99853600  0.83491200  1
  O  O27  1  0.51763900  0.48236100  0.50000000  1
  O  O28  1  0.49926800  0.50073200  0.16508800  1
  O  O29  1  0.49926800  0.50073200  0.83491200  1
