# generated using pymatgen
data_KSbPCO7
_symmetry_space_group_name_H-M   'P 1'
_cell_length_a   5.79527100
_cell_length_b   6.65438200
_cell_length_c   10.14029797
_cell_angle_alpha   90.00000000
_cell_angle_beta   91.33245645
_cell_angle_gamma   90.00000000
_symmetry_Int_Tables_number   1
_chemical_formula_structural   KSbPCO7
_chemical_formula_sum   'K2 Sb2 P2 C2 O14'
_cell_volume   390.94417257
_cell_formula_units_Z   2
loop_
 _symmetry_equiv_pos_site_id
 _symmetry_equiv_pos_as_xyz
  1  'x, y, z'
loop_
 _atom_site_type_symbol
 _atom_site_label
 _atom_site_symmetry_multiplicity
 _atom_site_fract_x
 _atom_site_fract_y
 _atom_site_fract_z
 _atom_site_occupancy
  K  K0  1  0.23596200  0.56490200  0.21075600  1
  K  K1  1  0.76403800  0.06490200  0.78924400  1
  Sb  Sb2  1  0.78454900  0.22563300  0.36086800  1
  Sb  Sb3  1  0.21545100  0.72563300  0.63913200  1
  P  P4  1  0.72532800  0.73098700  0.44162200  1
  P  P5  1  0.27467200  0.23098700  0.55837800  1
  C  C6  1  0.71753300  0.26582900  0.11164200  1
  C  C7  1  0.28246700  0.76582900  0.88835800  1
  O  O8  1  0.30818700  0.79154300  0.00786200  1
  O  O9  1  0.92522700  0.24848200  0.17445700  1
  O  O10  1  0.54434000  0.25348700  0.19791000  1
  O  O11  1  0.79840600  0.90871100  0.35007500  1
  O  O12  1  0.80464300  0.54597000  0.35938300  1
  O  O13  1  0.14769600  0.24017400  0.42187400  1
  O  O14  1  0.46187700  0.72643300  0.46004900  1
  O  O15  1  0.53812300  0.22643300  0.53995100  1
  O  O16  1  0.85230400  0.74017400  0.57812600  1
  O  O17  1  0.19535700  0.04597000  0.64061700  1
  O  O18  1  0.20159400  0.40871100  0.64992500  1
  O  O19  1  0.45566000  0.75348700  0.80209000  1
  O  O20  1  0.07477300  0.74848200  0.82554300  1
  O  O21  1  0.69181300  0.29154300  0.99213800  1
