# generated using pymatgen
data_LiCoSiO4
_symmetry_space_group_name_H-M   'P 1'
_cell_length_a   8.68545408
_cell_length_b   8.68545408
_cell_length_c   8.08451700
_cell_angle_alpha   90.00000000
_cell_angle_beta   90.00000000
_cell_angle_gamma   120.00000000
_symmetry_Int_Tables_number   1
_chemical_formula_structural   LiCoSiO4
_chemical_formula_sum   'Li6 Co6 Si6 O24'
_cell_volume   528.16518158
_cell_formula_units_Z   6
loop_
 _symmetry_equiv_pos_site_id
 _symmetry_equiv_pos_as_xyz
  1  'x, y, z'
loop_
 _atom_site_type_symbol
 _atom_site_label
 _atom_site_symmetry_multiplicity
 _atom_site_fract_x
 _atom_site_fract_y
 _atom_site_fract_z
 _atom_site_occupancy
  Li  Li0  1  0.66666667  0.33333333  0.76080500  1
  Li  Li1  1  0.66666667  0.33333333  0.24589200  1
  Li  Li2  1  0.00000000  0.00000000  0.59360600  1
  Li  Li3  1  0.00000000  0.00000000  0.09360600  1
  Li  Li4  1  0.33333333  0.66666667  0.26080500  1
  Li  Li5  1  0.33333333  0.66666667  0.74589200  1
  Co  Co6  1  0.69152000  0.65606000  0.90360600  1
  Co  Co7  1  0.34394000  0.03546000  0.90360600  1
  Co  Co8  1  0.96454000  0.30848000  0.90360600  1
  Co  Co9  1  0.03546000  0.69152000  0.40360600  1
  Co  Co10  1  0.65606000  0.96454000  0.40360600  1
  Co  Co11  1  0.30848000  0.34394000  0.40360600  1
  Si  Si12  1  0.68913600  0.64212500  0.51779100  1
  Si  Si13  1  0.35787500  0.04701100  0.51779100  1
  Si  Si14  1  0.95298900  0.31086400  0.51779100  1
  Si  Si15  1  0.04701100  0.68913600  0.01779100  1
  Si  Si16  1  0.64212500  0.95298900  0.01779100  1
  Si  Si17  1  0.31086400  0.35787500  0.01779100  1
  O  O18  1  0.91258300  0.77232000  0.00848600  1
  O  O19  1  0.73545800  0.58634800  0.69798700  1
  O  O20  1  0.52513100  0.44456200  0.99620800  1
  O  O21  1  0.78619700  0.58063900  0.37747400  1
  O  O22  1  0.41936100  0.20555800  0.37747400  1
  O  O23  1  0.91943100  0.47486900  0.99620800  1
  O  O24  1  0.22768000  0.14026300  0.00848600  1
  O  O25  1  0.41365200  0.14911000  0.69798700  1
  O  O26  1  0.85089000  0.26454200  0.69798700  1
  O  O27  1  0.55543800  0.08056900  0.99620800  1
  O  O28  1  0.14026300  0.91258300  0.50848600  1
  O  O29  1  0.79444200  0.21380300  0.37747400  1
  O  O30  1  0.20555800  0.78619700  0.87747400  1
  O  O31  1  0.85973700  0.08741700  0.00848600  1
  O  O32  1  0.44456200  0.91943100  0.49620800  1
  O  O33  1  0.14911000  0.73545800  0.19798700  1
  O  O34  1  0.58634800  0.85089000  0.19798700  1
  O  O35  1  0.77232000  0.85973700  0.50848600  1
  O  O36  1  0.08056900  0.52513100  0.49620800  1
  O  O37  1  0.58063900  0.79444200  0.87747400  1
  O  O38  1  0.21380300  0.41936100  0.87747400  1
  O  O39  1  0.47486900  0.55543800  0.49620800  1
  O  O40  1  0.26454200  0.41365200  0.19798700  1
  O  O41  1  0.08741700  0.22768000  0.50848600  1
