# generated using pymatgen
data_SnSb3(PO4)4
_symmetry_space_group_name_H-M   'P 1'
_cell_length_a   4.83231900
_cell_length_b   7.03994900
_cell_length_c   10.08210885
_cell_angle_alpha   90.00000000
_cell_angle_beta   91.05121093
_cell_angle_gamma   90.00000000
_symmetry_Int_Tables_number   1
_chemical_formula_structural   SnSb3(PO4)4
_chemical_formula_sum   'Sn1 Sb3 P4 O16'
_cell_volume   342.92835141
_cell_formula_units_Z   1
loop_
 _symmetry_equiv_pos_site_id
 _symmetry_equiv_pos_as_xyz
  1  'x, y, z'
loop_
 _atom_site_type_symbol
 _atom_site_label
 _atom_site_symmetry_multiplicity
 _atom_site_fract_x
 _atom_site_fract_y
 _atom_site_fract_z
 _atom_site_occupancy
  Sn  Sn0  1  0.89524500  0.50000000  0.29275600  1
  Sb  Sb1  1  0.10064100  0.00000000  0.70633400  1
  Sb  Sb2  1  0.39245900  0.00000000  0.20221400  1
  Sb  Sb3  1  0.59914200  0.50000000  0.79826600  1
  P  P4  1  0.15731400  0.50000000  0.60067500  1
  P  P5  1  0.32979100  0.50000000  0.09908500  1
  P  P6  1  0.67442300  0.00000000  0.90307000  1
  P  P7  1  0.83709100  0.00000000  0.39995300  1
  O  O8  1  0.22199200  0.50000000  0.45172000  1
  O  O9  1  0.30371200  0.67025900  0.67731300  1
  O  O10  1  0.30371200  0.32974100  0.67731300  1
  O  O11  1  0.15454200  0.00000000  0.38529700  1
  O  O12  1  0.35585100  0.00000000  0.88864800  1
  O  O13  1  0.19910200  0.67237100  0.17625000  1
  O  O14  1  0.19910200  0.32762900  0.17625000  1
  O  O15  1  0.25517800  0.50000000  0.95111300  1
  O  O16  1  0.75298300  0.00000000  0.05015900  1
  O  O17  1  0.80962100  0.17031300  0.82316100  1
  O  O18  1  0.80962100  0.82968700  0.82316100  1
  O  O19  1  0.65058000  0.50000000  0.11245600  1
  O  O20  1  0.84168600  0.50000000  0.61630900  1
  O  O21  1  0.69689500  0.17162000  0.32114000  1
  O  O22  1  0.69689500  0.82838000  0.32114000  1
  O  O23  1  0.76242400  0.00000000  0.54621900  1
