# generated using pymatgen
data_Mn2O3
_symmetry_space_group_name_H-M   'P 1'
_cell_length_a   5.16060779
_cell_length_b   5.16060779
_cell_length_c   14.00572620
_cell_angle_alpha   90.00000000
_cell_angle_beta   90.00000000
_cell_angle_gamma   120.00000000
_symmetry_Int_Tables_number   1
_chemical_formula_structural   Mn2O3
_chemical_formula_sum   'Mn12 O18'
_cell_volume   323.02636497
_cell_formula_units_Z   6
loop_
 _symmetry_equiv_pos_site_id
 _symmetry_equiv_pos_as_xyz
  1  'x, y, z'
loop_
 _atom_site_type_symbol
 _atom_site_label
 _atom_site_symmetry_multiplicity
 _atom_site_fract_x
 _atom_site_fract_y
 _atom_site_fract_z
 _atom_site_occupancy
  Mn  Mn0  1  0.00000000  0.00000000  0.14950600  1
  Mn  Mn1  1  0.33333333  0.66666667  0.31617267  1
  Mn  Mn2  1  0.33333333  0.66666667  0.01716067  1
  Mn  Mn3  1  0.66666667  0.33333333  0.18382733  1
  Mn  Mn4  1  0.66666667  0.33333333  0.48283933  1
  Mn  Mn5  1  0.00000000  0.00000000  0.64950600  1
  Mn  Mn6  1  0.00000000  0.00000000  0.35049400  1
  Mn  Mn7  1  0.33333333  0.66666667  0.51716067  1
  Mn  Mn8  1  0.33333333  0.66666667  0.81617267  1
  Mn  Mn9  1  0.66666667  0.33333333  0.98283933  1
  Mn  Mn10  1  0.66666667  0.33333333  0.68382733  1
  Mn  Mn11  1  0.00000000  0.00000000  0.85049400  1
  O  O12  1  0.69654900  0.69654900  0.25000000  1
  O  O13  1  0.36321567  0.33333333  0.08333333  1
  O  O14  1  0.66666667  0.02988233  0.08333333  1
  O  O15  1  0.00000000  0.30345100  0.25000000  1
  O  O16  1  0.30345100  0.00000000  0.25000000  1
  O  O17  1  0.97011767  0.63678433  0.08333333  1
  O  O18  1  0.36321567  0.02988233  0.58333333  1
  O  O19  1  0.02988233  0.66666667  0.41666667  1
  O  O20  1  0.33333333  0.36321567  0.41666667  1
  O  O21  1  0.66666667  0.63678433  0.58333333  1
  O  O22  1  0.97011767  0.33333333  0.58333333  1
  O  O23  1  0.63678433  0.97011767  0.41666667  1
  O  O24  1  0.02988233  0.36321567  0.91666667  1
  O  O25  1  0.69654900  0.00000000  0.75000000  1
  O  O26  1  0.00000000  0.69654900  0.75000000  1
  O  O27  1  0.33333333  0.97011767  0.91666667  1
  O  O28  1  0.63678433  0.66666667  0.91666667  1
  O  O29  1  0.30345100  0.30345100  0.75000000  1
