# generated using pymatgen
data_MgFeO3
_symmetry_space_group_name_H-M   'P 1'
_cell_length_a   5.09750570
_cell_length_b   5.09750570
_cell_length_c   13.96185000
_cell_angle_alpha   90.00000000
_cell_angle_beta   90.00000000
_cell_angle_gamma   120.00000000
_symmetry_Int_Tables_number   1
_chemical_formula_structural   MgFeO3
_chemical_formula_sum   'Mg6 Fe6 O18'
_cell_volume   314.18759923
_cell_formula_units_Z   6
loop_
 _symmetry_equiv_pos_site_id
 _symmetry_equiv_pos_as_xyz
  1  'x, y, z'
loop_
 _atom_site_type_symbol
 _atom_site_label
 _atom_site_symmetry_multiplicity
 _atom_site_fract_x
 _atom_site_fract_y
 _atom_site_fract_z
 _atom_site_occupancy
  Mg  Mg0  1  0.00000000  0.00000000  0.14149200  1
  Mg  Mg1  1  0.66666667  0.33333333  0.19184133  1
  Mg  Mg2  1  0.66666667  0.33333333  0.47482533  1
  Mg  Mg3  1  0.33333333  0.66666667  0.52517467  1
  Mg  Mg4  1  0.33333333  0.66666667  0.80815867  1
  Mg  Mg5  1  0.00000000  0.00000000  0.85850800  1
  Fe  Fe6  1  0.33333333  0.66666667  0.01425667  1
  Fe  Fe7  1  0.33333333  0.66666667  0.31907667  1
  Fe  Fe8  1  0.00000000  0.00000000  0.34759000  1
  Fe  Fe9  1  0.00000000  0.00000000  0.65241000  1
  Fe  Fe10  1  0.66666667  0.33333333  0.68092333  1
  Fe  Fe11  1  0.66666667  0.33333333  0.98574333  1
  O  O12  1  0.97807700  0.62196500  0.08030500  1
  O  O13  1  0.28863167  0.97722133  0.25302833  1
  O  O14  1  0.02277867  0.31141033  0.25302833  1
  O  O15  1  0.64388800  0.02192300  0.08030500  1
  O  O16  1  0.37803500  0.35611200  0.08030500  1
  O  O17  1  0.68858967  0.71136833  0.25302833  1
  O  O18  1  0.64474367  0.95529833  0.41363833  1
  O  O19  1  0.95529833  0.31055467  0.58636167  1
  O  O20  1  0.68944533  0.64474367  0.58636167  1
  O  O21  1  0.31055467  0.35525633  0.41363833  1
  O  O22  1  0.04470167  0.68944533  0.41363833  1
  O  O23  1  0.35525633  0.04470167  0.58636167  1
  O  O24  1  0.31141033  0.28863167  0.74697167  1
  O  O25  1  0.62196500  0.64388800  0.91969500  1
  O  O26  1  0.35611200  0.97807700  0.91969500  1
  O  O27  1  0.97722133  0.68858967  0.74697167  1
  O  O28  1  0.71136833  0.02277867  0.74697167  1
  O  O29  1  0.02192300  0.37803500  0.91969500  1
