# generated using pymatgen
data_Li12Mn2O9
_symmetry_space_group_name_H-M   'P 1'
_cell_length_a   5.67437714
_cell_length_b   5.76434176
_cell_length_c   8.16242577
_cell_angle_alpha   87.75355875
_cell_angle_beta   87.15079601
_cell_angle_gamma   62.17942910
_symmetry_Int_Tables_number   1
_chemical_formula_structural   Li12Mn2O9
_chemical_formula_sum   'Li12 Mn2 O9'
_cell_volume   235.79471421
_cell_formula_units_Z   1
loop_
 _symmetry_equiv_pos_site_id
 _symmetry_equiv_pos_as_xyz
  1  'x, y, z'
loop_
 _atom_site_type_symbol
 _atom_site_label
 _atom_site_symmetry_multiplicity
 _atom_site_fract_x
 _atom_site_fract_y
 _atom_site_fract_z
 _atom_site_occupancy
  Li  Li0  1  0.70000500  0.93960700  0.91865800  1
  Li  Li1  1  0.95346800  0.71171500  0.58028300  1
  Li  Li2  1  0.34648600  0.93634500  0.57279200  1
  Li  Li3  1  0.02655800  0.96250000  0.26124000  1
  Li  Li4  1  0.99733500  0.02870600  0.77202500  1
  Li  Li5  1  0.36565000  0.67912900  0.91805900  1
  Li  Li6  1  0.68136600  0.37517900  0.58309400  1
  Li  Li7  1  0.03482100  0.62405000  0.08892500  1
  Li  Li8  1  0.71448000  0.29576700  0.06882500  1
  Li  Li9  1  0.62208800  0.07612700  0.40264000  1
  Li  Li10  1  0.06855200  0.33147100  0.39683000  1
  Li  Li11  1  0.29311300  0.06065200  0.07828600  1
  Mn  Mn12  1  0.61989000  0.66948200  0.27321100  1
  Mn  Mn13  1  0.30148700  0.33076100  0.75879900  1
  O  O14  1  0.91962900  0.70791100  0.34825400  1
  O  O15  1  0.34409700  0.00451200  0.32285000  1
  O  O16  1  0.02032400  0.96114000  0.00783400  1
  O  O17  1  0.64779600  0.67462700  0.03652200  1
  O  O18  1  0.28587400  0.66563900  0.68304200  1
  O  O19  1  0.74559500  0.31291700  0.32601900  1
  O  O20  1  0.38313900  0.32284500  0.97898300  1
  O  O21  1  0.63876500  0.04166000  0.66920800  1
  O  O22  1  0.04701400  0.29886600  0.63424700  1
