# generated using pymatgen
data_Li4Ti2Nb3Ni3O16
_symmetry_space_group_name_H-M   'P 1'
_cell_length_a   10.51692910
_cell_length_b   5.98211046
_cell_length_c   9.78890508
_cell_angle_alpha   90.00000000
_cell_angle_beta   90.92967897
_cell_angle_gamma   90.00000000
_symmetry_Int_Tables_number   1
_chemical_formula_structural   Li4Ti2Nb3Ni3O16
_chemical_formula_sum   'Li8 Ti4 Nb6 Ni6 O32'
_cell_volume   615.77254026
_cell_formula_units_Z   2
loop_
 _symmetry_equiv_pos_site_id
 _symmetry_equiv_pos_as_xyz
  1  'x, y, z'
loop_
 _atom_site_type_symbol
 _atom_site_label
 _atom_site_symmetry_multiplicity
 _atom_site_fract_x
 _atom_site_fract_y
 _atom_site_fract_z
 _atom_site_occupancy
  Li  Li0  1  0.66575650  0.00000000  0.89489200  1
  Li  Li1  1  0.98508200  0.00000000  0.98400550  1
  Li  Li2  1  0.99168650  0.00000000  0.50109950  1
  Li  Li3  1  0.83476800  0.50000000  0.40490500  1
  Li  Li4  1  0.16575650  0.50000000  0.89489200  1
  Li  Li5  1  0.48508200  0.50000000  0.98400550  1
  Li  Li6  1  0.49168650  0.50000000  0.50109950  1
  Li  Li7  1  0.33476800  0.00000000  0.40490500  1
  Ti  Ti8  1  0.66967100  0.00000000  0.50775900  1
  Ti  Ti9  1  0.85825450  0.50000000  0.98169950  1
  Ti  Ti10  1  0.16967100  0.50000000  0.50775900  1
  Ti  Ti11  1  0.35825450  0.00000000  0.98169950  1
  Nb  Nb12  1  0.67776350  0.50000000  0.72753450  1
  Nb  Nb13  1  0.59120750  0.75138650  0.21788750  1
  Nb  Nb14  1  0.59120750  0.24861350  0.21788750  1
  Nb  Nb15  1  0.17776350  0.00000000  0.72753450  1
  Nb  Nb16  1  0.09120750  0.25138650  0.21788750  1
  Nb  Nb17  1  0.09120750  0.74861350  0.21788750  1
  Ni  Ni18  1  0.91527250  0.25514500  0.70775600  1
  Ni  Ni19  1  0.91527250  0.74485500  0.70775600  1
  Ni  Ni20  1  0.82992200  0.00000000  0.20800500  1
  Ni  Ni21  1  0.41527250  0.75514500  0.70775600  1
  Ni  Ni22  1  0.41527250  0.24485500  0.70775600  1
  Ni  Ni23  1  0.32992200  0.50000000  0.20800500  1
  O  O24  1  0.51444100  0.00000000  0.34225650  1
  O  O25  1  0.66367750  0.00000000  0.09513250  1
  O  O26  1  0.99405250  0.00000000  0.31439500  1
  O  O27  1  0.50408700  0.50000000  0.79976400  1
  O  O28  1  0.66480350  0.50000000  0.09507350  1
  O  O29  1  0.82650850  0.00000000  0.58973850  1
  O  O30  1  0.82257450  0.50000000  0.60166000  1
  O  O31  1  0.97868800  0.50000000  0.85078150  1
  O  O32  1  0.59069550  0.75411900  0.59442350  1
  O  O33  1  0.59069550  0.24588100  0.59442350  1
  O  O34  1  0.73420400  0.77432100  0.34198400  1
  O  O35  1  0.73420400  0.22567900  0.34198400  1
  O  O36  1  0.75612750  0.27924050  0.84875200  1
  O  O37  1  0.75612750  0.72075950  0.84875200  1
  O  O38  1  0.92124150  0.25645450  0.09379450  1
  O  O39  1  0.92124150  0.74354550  0.09379450  1
  O  O40  1  0.01444100  0.50000000  0.34225650  1
  O  O41  1  0.16367750  0.50000000  0.09513250  1
  O  O42  1  0.49405250  0.50000000  0.31439500  1
  O  O43  1  0.00408700  0.00000000  0.79976400  1
  O  O44  1  0.16480350  0.00000000  0.09507350  1
  O  O45  1  0.32650850  0.50000000  0.58973850  1
  O  O46  1  0.32257450  0.00000000  0.60166000  1
  O  O47  1  0.47868800  0.00000000  0.85078150  1
  O  O48  1  0.09069550  0.25411900  0.59442350  1
  O  O49  1  0.09069550  0.74588100  0.59442350  1
  O  O50  1  0.23420400  0.27432100  0.34198400  1
  O  O51  1  0.23420400  0.72567900  0.34198400  1
  O  O52  1  0.25612750  0.77924050  0.84875200  1
  O  O53  1  0.25612750  0.22075950  0.84875200  1
  O  O54  1  0.42124150  0.75645450  0.09379450  1
  O  O55  1  0.42124150  0.24354550  0.09379450  1
