# generated using pymatgen
data_Li3Ti4VO8
_symmetry_space_group_name_H-M   'P 1'
_cell_length_a   10.31149400
_cell_length_b   5.88631600
_cell_length_c   5.99918136
_cell_angle_alpha   90.00000000
_cell_angle_beta   125.33577343
_cell_angle_gamma   90.00000000
_symmetry_Int_Tables_number   1
_chemical_formula_structural   Li3Ti4VO8
_chemical_formula_sum   'Li6 Ti8 V2 O16'
_cell_volume   297.04922352
_cell_formula_units_Z   2
loop_
 _symmetry_equiv_pos_site_id
 _symmetry_equiv_pos_as_xyz
  1  'x, y, z'
loop_
 _atom_site_type_symbol
 _atom_site_label
 _atom_site_symmetry_multiplicity
 _atom_site_fract_x
 _atom_site_fract_y
 _atom_site_fract_z
 _atom_site_occupancy
  Li  Li0  1  0.75000000  0.25000000  0.00000000  1
  Li  Li1  1  0.00000000  0.00000000  0.00000000  1
  Li  Li2  1  0.75000000  0.75000000  0.00000000  1
  Li  Li3  1  0.25000000  0.75000000  0.00000000  1
  Li  Li4  1  0.50000000  0.50000000  0.00000000  1
  Li  Li5  1  0.25000000  0.25000000  0.00000000  1
  Ti  Ti6  1  0.00000000  0.50000000  0.00000000  1
  Ti  Ti7  1  0.00000000  0.00000000  0.50000000  1
  Ti  Ti8  1  0.25000000  0.75000000  0.50000000  1
  Ti  Ti9  1  0.25000000  0.25000000  0.50000000  1
  Ti  Ti10  1  0.50000000  0.00000000  0.00000000  1
  Ti  Ti11  1  0.50000000  0.50000000  0.50000000  1
  Ti  Ti12  1  0.75000000  0.25000000  0.50000000  1
  Ti  Ti13  1  0.75000000  0.75000000  0.50000000  1
  V  V14  1  0.00000000  0.50000000  0.50000000  1
  V  V15  1  0.50000000  0.00000000  0.50000000  1
  O  O16  1  0.25000900  0.00000000  0.75763900  1
  O  O17  1  0.99876800  0.75307100  0.24514600  1
  O  O18  1  0.74939000  0.50000000  0.26590100  1
  O  O19  1  0.00123200  0.75307100  0.75485400  1
  O  O20  1  0.99876800  0.24692900  0.24514600  1
  O  O21  1  0.25061000  0.50000000  0.73409900  1
  O  O22  1  0.00123200  0.24692900  0.75485400  1
  O  O23  1  0.74999100  0.00000000  0.24236100  1
  O  O24  1  0.75000900  0.50000000  0.75763900  1
  O  O25  1  0.49876800  0.25307100  0.24514600  1
  O  O26  1  0.24939000  0.00000000  0.26590100  1
  O  O27  1  0.50123200  0.25307100  0.75485400  1
  O  O28  1  0.49876800  0.74692900  0.24514600  1
  O  O29  1  0.75061000  0.00000000  0.73409900  1
  O  O30  1  0.50123200  0.74692900  0.75485400  1
  O  O31  1  0.24999100  0.50000000  0.24236100  1
