# generated using pymatgen
data_Li2MnO2F
_symmetry_space_group_name_H-M   'P 1'
_cell_length_a   5.17934200
_cell_length_b   9.03401600
_cell_length_c   9.78543751
_cell_angle_alpha   90.00000000
_cell_angle_beta   99.43529074
_cell_angle_gamma   90.00000000
_symmetry_Int_Tables_number   1
_chemical_formula_structural   Li2MnO2F
_chemical_formula_sum   'Li16 Mn8 O16 F8'
_cell_volume   451.66889195
_cell_formula_units_Z   8
loop_
 _symmetry_equiv_pos_site_id
 _symmetry_equiv_pos_as_xyz
  1  'x, y, z'
loop_
 _atom_site_type_symbol
 _atom_site_label
 _atom_site_symmetry_multiplicity
 _atom_site_fract_x
 _atom_site_fract_y
 _atom_site_fract_z
 _atom_site_occupancy
  Li  Li0  1  0.74789800  0.91160500  0.25456200  1
  Li  Li1  1  0.74732500  0.74661900  0.75006200  1
  Li  Li2  1  0.50000000  0.59095200  0.50000000  1
  Li  Li3  1  0.25210200  0.91160500  0.74543800  1
  Li  Li4  1  0.25267500  0.74661900  0.24993800  1
  Li  Li5  1  0.26382250  0.59329550  0.74450400  1
  Li  Li6  1  0.00000000  0.74876100  0.50000000  1
  Li  Li7  1  0.73617750  0.59329550  0.25549600  1
  Li  Li8  1  0.24789800  0.41160500  0.25456200  1
  Li  Li9  1  0.24732500  0.24661900  0.75006200  1
  Li  Li10  1  0.00000000  0.09095200  0.50000000  1
  Li  Li11  1  0.75210200  0.41160500  0.74543800  1
  Li  Li12  1  0.75267500  0.24661900  0.24993800  1
  Li  Li13  1  0.76382250  0.09329550  0.74450400  1
  Li  Li14  1  0.50000000  0.24876100  0.50000000  1
  Li  Li15  1  0.23617750  0.09329550  0.25549600  1
  Mn  Mn16  1  0.50000000  0.75112800  0.00000000  1
  Mn  Mn17  1  0.50000000  0.89546800  0.50000000  1
  Mn  Mn18  1  0.00000000  0.58749600  0.00000000  1
  Mn  Mn19  1  0.00000000  0.92280100  0.00000000  1
  Mn  Mn20  1  0.00000000  0.25112800  0.00000000  1
  Mn  Mn21  1  0.00000000  0.39546800  0.50000000  1
  Mn  Mn22  1  0.50000000  0.08749600  0.00000000  1
  Mn  Mn23  1  0.50000000  0.42280100  0.00000000  1
  O  O24  1  0.65044550  0.93433750  0.88988300  1
  O  O25  1  0.61183600  0.75700600  0.38102800  1
  O  O26  1  0.33985850  0.57944850  0.11986300  1
  O  O27  1  0.34955450  0.93433750  0.11011700  1
  O  O28  1  0.38816400  0.75700600  0.61897200  1
  O  O29  1  0.11038350  0.74093250  0.88238400  1
  O  O30  1  0.88961650  0.74093250  0.11761600  1
  O  O31  1  0.66014150  0.57944850  0.88013700  1
  O  O32  1  0.15044550  0.43433750  0.88988300  1
  O  O33  1  0.11183600  0.25700600  0.38102800  1
  O  O34  1  0.83985850  0.07944850  0.11986300  1
  O  O35  1  0.84955450  0.43433750  0.11011700  1
  O  O36  1  0.88816400  0.25700600  0.61897200  1
  O  O37  1  0.61038350  0.24093250  0.88238400  1
  O  O38  1  0.38961650  0.24093250  0.11761600  1
  O  O39  1  0.16014150  0.07944850  0.88013700  1
  F  F40  1  0.89140600  0.91928700  0.62782200  1
  F  F41  1  0.10782000  0.56916100  0.38442600  1
  F  F42  1  0.10859400  0.91928700  0.37217800  1
  F  F43  1  0.89218000  0.56916100  0.61557400  1
  F  F44  1  0.39140600  0.41928700  0.62782200  1
  F  F45  1  0.60782000  0.06916100  0.38442600  1
  F  F46  1  0.60859400  0.41928700  0.37217800  1
  F  F47  1  0.39218000  0.06916100  0.61557400  1
