# generated using pymatgen
data_Mn2O3F
_symmetry_space_group_name_H-M   'P 1'
_cell_length_a   6.30331672
_cell_length_b   6.78982316
_cell_length_c   3.01198600
_cell_angle_alpha   90.00000000
_cell_angle_beta   90.00000000
_cell_angle_gamma   90.00000000
_symmetry_Int_Tables_number   1
_chemical_formula_structural   Mn2O3F
_chemical_formula_sum   'Mn4 O6 F2'
_cell_volume   128.90819935
_cell_formula_units_Z   2
loop_
 _symmetry_equiv_pos_site_id
 _symmetry_equiv_pos_as_xyz
  1  'x, y, z'
loop_
 _atom_site_type_symbol
 _atom_site_label
 _atom_site_symmetry_multiplicity
 _atom_site_fract_x
 _atom_site_fract_y
 _atom_site_fract_z
 _atom_site_occupancy
  Mn  Mn0  1  0.50000000  0.51639300  0.00000000  1
  Mn  Mn1  1  0.50000000  0.98795900  0.50000000  1
  Mn  Mn2  1  0.00000000  0.01639300  0.00000000  1
  Mn  Mn3  1  0.00000000  0.48795900  0.50000000  1
  O  O4  1  0.50000000  0.69388800  0.50000000  1
  O  O5  1  0.30492450  0.99725250  0.00000000  1
  O  O6  1  0.69507550  0.99725250  0.00000000  1
  O  O7  1  0.00000000  0.19388800  0.50000000  1
  O  O8  1  0.80492450  0.49725250  0.00000000  1
  O  O9  1  0.19507550  0.49725250  0.00000000  1
  F  F10  1  0.50000000  0.30725600  0.50000000  1
  F  F11  1  0.00000000  0.80725600  0.50000000  1
