# generated using pymatgen
data_LiCo2OF3
_symmetry_space_group_name_H-M   'P 1'
_cell_length_a   10.44528496
_cell_length_b   6.08527405
_cell_length_c   6.06239099
_cell_angle_alpha   90.00000000
_cell_angle_beta   124.04894769
_cell_angle_gamma   90.00000000
_symmetry_Int_Tables_number   1
_chemical_formula_structural   LiCo2OF3
_chemical_formula_sum   'Li4 Co8 O4 F12'
_cell_volume   319.27734631
_cell_formula_units_Z   4
loop_
 _symmetry_equiv_pos_site_id
 _symmetry_equiv_pos_as_xyz
  1  'x, y, z'
loop_
 _atom_site_type_symbol
 _atom_site_label
 _atom_site_symmetry_multiplicity
 _atom_site_fract_x
 _atom_site_fract_y
 _atom_site_fract_z
 _atom_site_occupancy
  Li  Li0  1  0.50000000  0.00000000  0.00000000  1
  Li  Li1  1  0.50000000  0.00000000  0.50000000  1
  Li  Li2  1  0.00000000  0.50000000  0.00000000  1
  Li  Li3  1  0.00000000  0.50000000  0.50000000  1
  Co  Co4  1  0.86325750  0.00000000  0.56913600  1
  Co  Co5  1  0.75000000  0.25000000  0.00000000  1
  Co  Co6  1  0.13674250  0.00000000  0.43086400  1
  Co  Co7  1  0.75000000  0.75000000  0.00000000  1
  Co  Co8  1  0.36325750  0.50000000  0.56913600  1
  Co  Co9  1  0.25000000  0.75000000  0.00000000  1
  Co  Co10  1  0.63674250  0.50000000  0.43086400  1
  Co  Co11  1  0.25000000  0.25000000  0.00000000  1
  O  O12  1  0.74103350  0.00000000  0.19373800  1
  O  O13  1  0.25896650  0.00000000  0.80626200  1
  O  O14  1  0.24103350  0.50000000  0.19373800  1
  O  O15  1  0.75896650  0.50000000  0.80626200  1
  F  F16  1  0.73571700  0.00000000  0.72440600  1
  F  F17  1  0.26428300  0.00000000  0.27559400  1
  F  F18  1  0.50111050  0.76135150  0.74354500  1
  F  F19  1  0.50111050  0.23864850  0.74354500  1
  F  F20  1  0.49888950  0.76135150  0.25645500  1
  F  F21  1  0.49888950  0.23864850  0.25645500  1
  F  F22  1  0.23571700  0.50000000  0.72440600  1
  F  F23  1  0.76428300  0.50000000  0.27559400  1
  F  F24  1  0.00111050  0.26135150  0.74354500  1
  F  F25  1  0.00111050  0.73864850  0.74354500  1
  F  F26  1  0.99888950  0.26135150  0.25645500  1
  F  F27  1  0.99888950  0.73864850  0.25645500  1
