# generated using pymatgen
data_LiP3(WO6)2
_symmetry_space_group_name_H-M   'P 1'
_cell_length_a   8.84909822
_cell_length_b   8.84909822
_cell_length_c   21.77550857
_cell_angle_alpha   90.00000000
_cell_angle_beta   90.00000000
_cell_angle_gamma   120.00000000
_symmetry_Int_Tables_number   1
_chemical_formula_structural   LiP3(WO6)2
_chemical_formula_sum   'Li6 P18 W12 O72'
_cell_volume   1476.71596352
_cell_formula_units_Z   6
loop_
 _symmetry_equiv_pos_site_id
 _symmetry_equiv_pos_as_xyz
  1  'x, y, z'
loop_
 _atom_site_type_symbol
 _atom_site_label
 _atom_site_symmetry_multiplicity
 _atom_site_fract_x
 _atom_site_fract_y
 _atom_site_fract_z
 _atom_site_occupancy
  Li  Li0  1  0.33333333  0.66666667  0.16666667  1
  Li  Li1  1  0.00000000  0.00000000  0.00000000  1
  Li  Li2  1  1.00000000  0.00000000  0.50000000  1
  Li  Li3  1  0.66666667  0.33333333  0.33333333  1
  Li  Li4  1  0.66666667  0.33333333  0.83333333  1
  Li  Li5  1  0.33333333  0.66666667  0.66666667  1
  P  P6  1  0.95760567  0.33333333  0.08333333  1
  P  P7  1  0.00000000  0.70906100  0.25000000  1
  P  P8  1  0.29093900  0.29093900  0.25000000  1
  P  P9  1  0.37572767  0.04239433  0.08333333  1
  P  P10  1  0.66666667  0.62427233  0.08333333  1
  P  P11  1  0.70906100  0.00000000  0.25000000  1
  P  P12  1  0.62427233  0.66666667  0.41666667  1
  P  P13  1  0.66666667  0.04239433  0.58333333  1
  P  P14  1  0.95760567  0.62427233  0.58333333  1
  P  P15  1  0.04239433  0.37572767  0.41666667  1
  P  P16  1  0.33333333  0.95760567  0.41666667  1
  P  P17  1  0.37572767  0.33333333  0.58333333  1
  P  P18  1  0.29093900  0.00000000  0.75000000  1
  P  P19  1  0.33333333  0.37572767  0.91666667  1
  P  P20  1  0.62427233  0.95760567  0.91666667  1
  P  P21  1  0.70906100  0.70906100  0.75000000  1
  P  P22  1  0.00000000  0.29093900  0.75000000  1
  P  P23  1  0.04239433  0.66666667  0.91666667  1
  W  W24  1  0.33333333  0.66666667  0.02533167  1
  W  W25  1  0.00000000  0.00000000  0.14133500  1
  W  W26  1  0.66666667  0.33333333  0.19199833  1
  W  W27  1  0.33333333  0.66666667  0.30800167  1
  W  W28  1  0.00000000  0.00000000  0.35866500  1
  W  W29  1  0.66666667  0.33333333  0.47466833  1
  W  W30  1  0.33333333  0.66666667  0.52533167  1
  W  W31  1  0.00000000  0.00000000  0.64133500  1
  W  W32  1  0.66666667  0.33333333  0.69199833  1
  W  W33  1  0.33333333  0.66666667  0.80800167  1
  W  W34  1  0.00000000  0.00000000  0.85866500  1
  W  W35  1  0.66666667  0.33333333  0.97466833  1
  O  O36  1  0.14241767  0.49765333  0.08595933  1
  O  O37  1  0.31143100  0.47575100  0.24737400  1
  O  O38  1  0.67152033  0.53045667  0.02491067  1
  O  O39  1  0.66181300  0.52560300  0.14175600  1
  O  O40  1  0.97809767  0.16901333  0.08070733  1
  O  O41  1  0.83568000  0.52424900  0.25262600  1
  O  O42  1  0.16432000  0.68856900  0.24737400  1
  O  O43  1  0.80773033  0.00485367  0.30842267  1
  O  O44  1  0.19226967  0.19712333  0.19157733  1
  O  O45  1  0.80287667  0.99514633  0.19157733  1
  O  O46  1  0.19712333  0.19226967  0.30842267  1
  O  O47  1  0.47575100  0.31143100  0.25262600  1
  O  O48  1  0.19091567  0.02190233  0.08070733  1
  O  O49  1  0.46954333  0.14106367  0.02491067  1
  O  O50  1  0.86379000  0.33818700  0.14175600  1
  O  O51  1  0.85893633  0.32847967  0.02491067  1
  O  O52  1  0.47439700  0.13621000  0.14175600  1
  O  O53  1  0.50234667  0.64476433  0.08595933  1
  O  O54  1  0.83098667  0.80908433  0.08070733  1
  O  O55  1  0.68856900  0.16432000  0.25262600  1
  O  O56  1  0.99514633  0.80287667  0.30842267  1
  O  O57  1  0.00485367  0.80773033  0.19157733  1
  O  O58  1  0.35523567  0.85758233  0.08595933  1
  O  O59  1  0.52424900  0.83568000  0.24737400  1
  O  O60  1  0.80908433  0.83098667  0.41929267  1
  O  O61  1  0.97809767  0.80908433  0.58070733  1
  O  O62  1  0.33818700  0.86379000  0.35824400  1
  O  O63  1  0.32847967  0.85893633  0.47508933  1
  O  O64  1  0.64476433  0.50234667  0.41404067  1
  O  O65  1  0.50234667  0.85758233  0.58595933  1
  O  O66  1  0.83098667  0.02190233  0.58070733  1
  O  O67  1  0.47439700  0.33818700  0.64175600  1
  O  O68  1  0.85893633  0.53045667  0.52491067  1
  O  O69  1  0.46954333  0.32847967  0.52491067  1
  O  O70  1  0.86379000  0.52560300  0.64175600  1
  O  O71  1  0.14241767  0.64476433  0.58595933  1
  O  O72  1  0.85758233  0.35523567  0.41404067  1
  O  O73  1  0.13621000  0.47439700  0.35824400  1
  O  O74  1  0.53045667  0.67152033  0.47508933  1
  O  O75  1  0.52560300  0.66181300  0.35824400  1
  O  O76  1  0.14106367  0.46954333  0.47508933  1
  O  O77  1  0.16901333  0.97809767  0.41929267  1
  O  O78  1  0.49765333  0.14241767  0.41404067  1
  O  O79  1  0.35523567  0.49765333  0.58595933  1
  O  O80  1  0.66181300  0.13621000  0.64175600  1
  O  O81  1  0.67152033  0.14106367  0.52491067  1
  O  O82  1  0.02190233  0.19091567  0.41929267  1
  O  O83  1  0.19091567  0.16901333  0.58070733  1
  O  O84  1  0.47575100  0.16432000  0.75262600  1
  O  O85  1  0.64476433  0.14241767  0.91404067  1
  O  O86  1  0.00485367  0.19712333  0.69157733  1
  O  O87  1  0.99514633  0.19226967  0.80842267  1
  O  O88  1  0.31143100  0.83568000  0.74737400  1
  O  O89  1  0.16901333  0.19091567  0.91929267  1
  O  O90  1  0.49765333  0.35523567  0.91404067  1
  O  O91  1  0.14106367  0.67152033  0.97508933  1
  O  O92  1  0.52560300  0.86379000  0.85824400  1
  O  O93  1  0.13621000  0.66181300  0.85824400  1
  O  O94  1  0.53045667  0.85893633  0.97508933  1
  O  O95  1  0.80908433  0.97809767  0.91929267  1
  O  O96  1  0.52424900  0.68856900  0.74737400  1
  O  O97  1  0.80287667  0.80773033  0.69157733  1
  O  O98  1  0.19712333  0.00485367  0.80842267  1
  O  O99  1  0.19226967  0.99514633  0.69157733  1
  O  O100  1  0.80773033  0.80287667  0.80842267  1
  O  O101  1  0.83568000  0.31143100  0.75262600  1
  O  O102  1  0.16432000  0.47575100  0.74737400  1
  O  O103  1  0.02190233  0.83098667  0.91929267  1
  O  O104  1  0.32847967  0.46954333  0.97508933  1
  O  O105  1  0.33818700  0.47439700  0.85824400  1
  O  O106  1  0.68856900  0.52424900  0.75262600  1
  O  O107  1  0.85758233  0.50234667  0.91404067  1
