# generated using pymatgen
data_Li4Fe3(OF3)2
_symmetry_space_group_name_H-M   'P 1'
_cell_length_a   5.27125672
_cell_length_b   5.30938062
_cell_length_c   6.07208572
_cell_angle_alpha   106.93247225
_cell_angle_beta   89.03655476
_cell_angle_gamma   100.30082062
_symmetry_Int_Tables_number   1
_chemical_formula_structural   Li4Fe3(OF3)2
_chemical_formula_sum   'Li4 Fe3 O2 F6'
_cell_volume   159.84041065
_cell_formula_units_Z   1
loop_
 _symmetry_equiv_pos_site_id
 _symmetry_equiv_pos_as_xyz
  1  'x, y, z'
loop_
 _atom_site_type_symbol
 _atom_site_label
 _atom_site_symmetry_multiplicity
 _atom_site_fract_x
 _atom_site_fract_y
 _atom_site_fract_z
 _atom_site_occupancy
  Li  Li0  1  0.26482950  0.48334125  0.37733400  1
  Li  Li1  1  0.73517050  0.51665875  0.62266600  1
  Li  Li2  1  0.77417300  0.49999775  0.14212700  1
  Li  Li3  1  0.22582700  0.50000225  0.85787300  1
  Fe  Fe4  1  0.00000000  0.00000000  0.50000000  1
  Fe  Fe5  1  0.50117450  0.98880225  0.25874400  1
  Fe  Fe6  1  0.49882550  0.01119775  0.74125600  1
  O  O7  1  0.64718300  0.76952325  0.43277900  1
  O  O8  1  0.35281700  0.23047675  0.56722100  1
  F  F9  1  0.13908100  0.70540775  0.18537300  1
  F  F10  1  0.86091900  0.29459225  0.81462700  1
  F  F11  1  0.87115900  0.27338225  0.33006600  1
  F  F12  1  0.12884100  0.72661775  0.66993400  1
  F  F13  1  0.58648250  0.75017775  0.91763300  1
  F  F14  1  0.41351750  0.24982225  0.08236700  1
