# generated using pymatgen
data_Fe2Ni(PO4)3
_symmetry_space_group_name_H-M   'P 1'
_cell_length_a   8.63108650
_cell_length_b   8.63108650
_cell_length_c   20.62952294
_cell_angle_alpha   90.00000000
_cell_angle_beta   90.00000000
_cell_angle_gamma   120.00000000
_symmetry_Int_Tables_number   1
_chemical_formula_structural   Fe2Ni(PO4)3
_chemical_formula_sum   'Fe12 Ni6 P18 O72'
_cell_volume   1330.91633351
_cell_formula_units_Z   6
loop_
 _symmetry_equiv_pos_site_id
 _symmetry_equiv_pos_as_xyz
  1  'x, y, z'
loop_
 _atom_site_type_symbol
 _atom_site_label
 _atom_site_symmetry_multiplicity
 _atom_site_fract_x
 _atom_site_fract_y
 _atom_site_fract_z
 _atom_site_occupancy
  Fe  Fe0  1  0.33333333  0.66666667  0.81090267  1
  Fe  Fe1  1  0.33333333  0.66666667  0.02243067  1
  Fe  Fe2  1  0.33333333  0.66666667  0.31090267  1
  Fe  Fe3  1  0.33333333  0.66666667  0.52243067  1
  Fe  Fe4  1  0.00000000  0.00000000  0.14423600  1
  Fe  Fe5  1  1.00000000  0.00000000  0.35576400  1
  Fe  Fe6  1  0.00000000  0.00000000  0.64423600  1
  Fe  Fe7  1  0.00000000  0.00000000  0.85576400  1
  Fe  Fe8  1  0.66666667  0.33333333  0.47756933  1
  Fe  Fe9  1  0.66666667  0.33333333  0.68909733  1
  Fe  Fe10  1  0.66666667  0.33333333  0.97756933  1
  Fe  Fe11  1  0.66666667  0.33333333  0.18909733  1
  Ni  Ni12  1  0.00000000  0.00000000  0.00000000  1
  Ni  Ni13  1  0.33333333  0.66666667  0.16666667  1
  Ni  Ni14  1  0.66666667  0.33333333  0.33333333  1
  Ni  Ni15  1  0.00000000  0.00000000  0.50000000  1
  Ni  Ni16  1  0.33333333  0.66666667  0.66666667  1
  Ni  Ni17  1  0.66666667  0.33333333  0.83333333  1
  P  P18  1  0.66666667  0.62968033  0.08333333  1
  P  P19  1  0.96301367  0.33333333  0.08333333  1
  P  P20  1  0.37031967  0.03698633  0.08333333  1
  P  P21  1  0.29634700  0.29634700  0.25000000  1
  P  P22  1  0.70365300  0.00000000  0.25000000  1
  P  P23  1  0.00000000  0.70365300  0.25000000  1
  P  P24  1  0.33333333  0.96301367  0.41666667  1
  P  P25  1  0.62968033  0.66666667  0.41666667  1
  P  P26  1  0.03698633  0.37031967  0.41666667  1
  P  P27  1  0.96301367  0.62968033  0.58333333  1
  P  P28  1  0.37031967  0.33333333  0.58333333  1
  P  P29  1  0.66666667  0.03698633  0.58333333  1
  P  P30  1  0.00000000  0.29634700  0.75000000  1
  P  P31  1  0.29634700  0.00000000  0.75000000  1
  P  P32  1  0.70365300  0.70365300  0.75000000  1
  P  P33  1  0.62968033  0.96301367  0.91666667  1
  P  P34  1  0.03698633  0.66666667  0.91666667  1
  P  P35  1  0.33333333  0.37031967  0.91666667  1
  O  O36  1  0.34183033  0.47308767  0.97792567  1
  O  O37  1  0.52691233  0.86874267  0.97792567  1
  O  O38  1  0.83339833  0.82021467  0.07419267  1
  O  O39  1  0.13125733  0.65816967  0.97792567  1
  O  O40  1  0.67516367  0.53540933  0.14459233  1
  O  O41  1  0.49993500  0.65348300  0.09247400  1
  O  O42  1  0.98681633  0.16660167  0.07419267  1
  O  O43  1  0.15354800  0.50006500  0.09247400  1
  O  O44  1  0.20207600  0.19357900  0.18874100  1
  O  O45  1  0.34651700  0.84645200  0.09247400  1
  O  O46  1  0.48688133  0.32014967  0.25914067  1
  O  O47  1  0.80642100  0.00849700  0.18874100  1
  O  O48  1  0.86024567  0.32483633  0.14459233  1
  O  O49  1  0.17978533  0.01318367  0.07419267  1
  O  O50  1  0.32014967  0.48688133  0.24085933  1
  O  O51  1  0.46459067  0.13975433  0.14459233  1
  O  O52  1  0.51311867  0.83326833  0.24085933  1
  O  O53  1  0.67985033  0.16673167  0.25914067  1
  O  O54  1  0.16673167  0.67985033  0.24085933  1
  O  O55  1  0.99150300  0.79792400  0.18874100  1
  O  O56  1  0.53540933  0.67516367  0.35540767  1
  O  O57  1  0.83326833  0.51311867  0.25914067  1
  O  O58  1  0.13975433  0.46459067  0.35540767  1
  O  O59  1  0.32483633  0.86024567  0.35540767  1
  O  O60  1  0.00849700  0.80642100  0.31125900  1
  O  O61  1  0.19357900  0.20207600  0.31125900  1
  O  O62  1  0.50006500  0.15354800  0.40752600  1
  O  O63  1  0.79792400  0.99150300  0.31125900  1
  O  O64  1  0.34183033  0.86874267  0.47792567  1
  O  O65  1  0.16660167  0.98681633  0.42580733  1
  O  O66  1  0.65348300  0.49993500  0.40752600  1
  O  O67  1  0.82021467  0.83339833  0.42580733  1
  O  O68  1  0.86874267  0.52691233  0.52207433  1
  O  O69  1  0.01318367  0.17978533  0.42580733  1
  O  O70  1  0.15354800  0.65348300  0.59247400  1
  O  O71  1  0.47308767  0.34183033  0.52207433  1
  O  O72  1  0.52691233  0.65816967  0.47792567  1
  O  O73  1  0.84645200  0.34651700  0.40752600  1
  O  O74  1  0.98681633  0.82021467  0.57419267  1
  O  O75  1  0.13125733  0.47308767  0.47792567  1
  O  O76  1  0.17978533  0.16660167  0.57419267  1
  O  O77  1  0.34651700  0.50006500  0.59247400  1
  O  O78  1  0.83339833  0.01318367  0.57419267  1
  O  O79  1  0.65816967  0.13125733  0.52207433  1
  O  O80  1  0.20207600  0.00849700  0.68874100  1
  O  O81  1  0.49993500  0.84645200  0.59247400  1
  O  O82  1  0.80642100  0.79792400  0.68874100  1
  O  O83  1  0.99150300  0.19357900  0.68874100  1
  O  O84  1  0.67516367  0.13975433  0.64459233  1
  O  O85  1  0.86024567  0.53540933  0.64459233  1
  O  O86  1  0.16673167  0.48688133  0.74085933  1
  O  O87  1  0.46459067  0.32483633  0.64459233  1
  O  O88  1  0.00849700  0.20207600  0.81125900  1
  O  O89  1  0.83326833  0.32014967  0.75914067  1
  O  O90  1  0.32014967  0.83326833  0.74085933  1
  O  O91  1  0.48688133  0.16673167  0.75914067  1
  O  O92  1  0.53540933  0.86024567  0.85540767  1
  O  O93  1  0.67985033  0.51311867  0.75914067  1
  O  O94  1  0.82021467  0.98681633  0.92580733  1
  O  O95  1  0.13975433  0.67516367  0.85540767  1
  O  O96  1  0.19357900  0.99150300  0.81125900  1
  O  O97  1  0.51311867  0.67985033  0.74085933  1
  O  O98  1  0.65348300  0.15354800  0.90752600  1
  O  O99  1  0.79792400  0.80642100  0.81125900  1
  O  O100  1  0.84645200  0.49993500  0.90752600  1
  O  O101  1  0.01318367  0.83339833  0.92580733  1
  O  O102  1  0.50006500  0.34651700  0.90752600  1
  O  O103  1  0.32483633  0.46459067  0.85540767  1
  O  O104  1  0.86874267  0.34183033  0.02207433  1
  O  O105  1  0.16660167  0.17978533  0.92580733  1
  O  O106  1  0.47308767  0.13125733  0.02207433  1
  O  O107  1  0.65816967  0.52691233  0.02207433  1
