# generated using pymatgen
data_MnFe3Ni2(PO4)6
_symmetry_space_group_name_H-M   'P 1'
_cell_length_a   8.58831584
_cell_length_b   8.58831584
_cell_length_c   20.59172618
_cell_angle_alpha   90.00000000
_cell_angle_beta   90.00000000
_cell_angle_gamma   120.00000000
_symmetry_Int_Tables_number   1
_chemical_formula_structural   MnFe3Ni2(PO4)6
_chemical_formula_sum   'Mn3 Fe9 Ni6 P18 O72'
_cell_volume   1315.34415961
_cell_formula_units_Z   3
loop_
 _symmetry_equiv_pos_site_id
 _symmetry_equiv_pos_as_xyz
  1  'x, y, z'
loop_
 _atom_site_type_symbol
 _atom_site_label
 _atom_site_symmetry_multiplicity
 _atom_site_fract_x
 _atom_site_fract_y
 _atom_site_fract_z
 _atom_site_occupancy
  Mn  Mn0  1  0.33333333  0.66666667  0.80906067  1
  Mn  Mn1  1  0.00000000  0.00000000  0.14239400  1
  Mn  Mn2  1  0.66666667  0.33333333  0.47572733  1
  Fe  Fe3  1  0.33333333  0.66666667  0.52270167  1
  Fe  Fe4  1  0.33333333  0.66666667  0.31115267  1
  Fe  Fe5  1  0.33333333  0.66666667  0.02345267  1
  Fe  Fe6  1  0.00000000  0.00000000  0.85603500  1
  Fe  Fe7  1  0.00000000  0.00000000  0.64448600  1
  Fe  Fe8  1  0.00000000  0.00000000  0.35678600  1
  Fe  Fe9  1  0.66666667  0.33333333  0.18936833  1
  Fe  Fe10  1  0.66666667  0.33333333  0.97781933  1
  Fe  Fe11  1  0.66666667  0.33333333  0.69011933  1
  Ni  Ni12  1  0.33333333  0.66666667  0.66540767  1
  Ni  Ni13  1  0.33333333  0.66666667  0.16664567  1
  Ni  Ni14  1  0.00000000  0.00000000  0.99874100  1
  Ni  Ni15  1  0.00000000  0.00000000  0.49997900  1
  Ni  Ni16  1  0.66666667  0.33333333  0.33207433  1
  Ni  Ni17  1  0.66666667  0.33333333  0.83331233  1
  P  P18  1  0.70712433  0.70856567  0.24941067  1
  P  P19  1  0.29143433  0.99855867  0.24941067  1
  P  P20  1  0.00144133  0.29287567  0.24941067  1
  P  P21  1  0.66725633  0.03727967  0.08463567  1
  P  P22  1  0.37002333  0.33274367  0.08463567  1
  P  P23  1  0.96272033  0.62997667  0.08463567  1
  P  P24  1  0.37379100  0.04189900  0.58274400  1
  P  P25  1  0.95810100  0.33189200  0.58274400  1
  P  P26  1  0.66810800  0.62620900  0.58274400  1
  P  P27  1  0.33392300  0.37061300  0.41796900  1
  P  P28  1  0.03669000  0.66607700  0.41796900  1
  P  P29  1  0.62938700  0.96331000  0.41796900  1
  P  P30  1  0.04045767  0.37523233  0.91607733  1
  P  P31  1  0.62476767  0.66522533  0.91607733  1
  P  P32  1  0.33477467  0.95954233  0.91607733  1
  P  P33  1  0.00058967  0.70394633  0.75130233  1
  P  P34  1  0.70335667  0.99941033  0.75130233  1
  P  P35  1  0.29605367  0.29664333  0.75130233  1
  O  O36  1  0.53356067  0.86738433  0.35570933  1
  O  O37  1  0.33382367  0.46643933  0.35570933  1
  O  O38  1  0.68550000  0.51801800  0.25771200  1
  O  O39  1  0.13261567  0.66617633  0.35570933  1
  O  O40  1  0.80807733  0.80716967  0.18707467  1
  O  O41  1  0.51581100  0.68389100  0.24044000  1
  O  O42  1  0.48198200  0.16748200  0.25771200  1
  O  O43  1  0.31610900  0.83192000  0.24044000  1
  O  O44  1  0.67316000  0.13816000  0.14573100  1
  O  O45  1  0.16808000  0.48418900  0.24044000  1
  O  O46  1  0.83995667  0.01681633  0.07655333  1
  O  O47  1  0.46500000  0.32684000  0.14573100  1
  O  O48  1  0.19283033  0.00090767  0.18707467  1
  O  O49  1  0.83251800  0.31450000  0.25771200  1
  O  O50  1  0.50221000  0.84561000  0.09238200  1
  O  O51  1  0.99909233  0.19192267  0.18707467  1
  O  O52  1  0.34340000  0.49779000  0.09238200  1
  O  O53  1  0.17685967  0.16004333  0.07655333  1
  O  O54  1  0.15439000  0.65660000  0.09238200  1
  O  O55  1  0.86184000  0.53500000  0.14573100  1
  O  O56  1  0.52471333  0.65837667  0.97754467  1
  O  O57  1  0.98318367  0.82314033  0.07655333  1
  O  O58  1  0.34162333  0.86633667  0.97754467  1
  O  O59  1  0.13366333  0.47528667  0.97754467  1
  O  O60  1  0.20022733  0.20071767  0.68904267  1
  O  O61  1  0.00049033  0.79977267  0.68904267  1
  O  O62  1  0.35216667  0.85135133  0.59104533  1
  O  O63  1  0.79928233  0.99950967  0.68904267  1
  O  O64  1  0.47474400  0.14050300  0.52040800  1
  O  O65  1  0.18247767  0.01722433  0.57377333  1
  O  O66  1  0.14864867  0.50081533  0.59104533  1
  O  O67  1  0.98277567  0.16525333  0.57377333  1
  O  O68  1  0.33982667  0.47149333  0.47906433  1
  O  O69  1  0.83474667  0.81752233  0.57377333  1
  O  O70  1  0.50662333  0.35014967  0.40988667  1
  O  O71  1  0.13166667  0.66017333  0.47906433  1
  O  O72  1  0.85949700  0.33424100  0.52040800  1
  O  O73  1  0.49918467  0.64783333  0.59104533  1
  O  O74  1  0.16887667  0.17894333  0.42571533  1
  O  O75  1  0.66575900  0.52525600  0.52040800  1
  O  O76  1  0.01006667  0.83112333  0.42571533  1
  O  O77  1  0.84352633  0.49337667  0.40988667  1
  O  O78  1  0.82105667  0.98993333  0.42571533  1
  O  O79  1  0.52850667  0.86833333  0.47906433  1
  O  O80  1  0.19138000  0.99171000  0.31087800  1
  O  O81  1  0.64985033  0.15647367  0.40988667  1
  O  O82  1  0.00829000  0.19967000  0.31087800  1
  O  O83  1  0.80033000  0.80862000  0.31087800  1
  O  O84  1  0.86689400  0.53405100  0.02237600  1
  O  O85  1  0.66715700  0.13310600  0.02237600  1
  O  O86  1  0.01883333  0.18468467  0.92437867  1
  O  O87  1  0.46594900  0.33284300  0.02237600  1
  O  O88  1  0.14141067  0.47383633  0.85374133  1
  O  O89  1  0.84914433  0.35055767  0.90710667  1
  O  O90  1  0.81531533  0.83414867  0.92437867  1
  O  O91  1  0.64944233  0.49858667  0.90710667  1
  O  O92  1  0.00649333  0.80482667  0.81239767  1
  O  O93  1  0.50141333  0.15085567  0.90710667  1
  O  O94  1  0.17329000  0.68348300  0.74322000  1
  O  O95  1  0.79833333  0.99350667  0.81239767  1
  O  O96  1  0.52616367  0.66757433  0.85374133  1
  O  O97  1  0.16585133  0.98116667  0.92437867  1
  O  O98  1  0.83554333  0.51227667  0.75904867  1
  O  O99  1  0.33242567  0.85858933  0.85374133  1
  O  O100  1  0.67673333  0.16445667  0.75904867  1
  O  O101  1  0.51019300  0.82671000  0.74322000  1
  O  O102  1  0.48772333  0.32326667  0.75904867  1
  O  O103  1  0.19517333  0.20166667  0.81239767  1
  O  O104  1  0.85804667  0.32504333  0.64421133  1
  O  O105  1  0.31651700  0.48980700  0.74322000  1
  O  O106  1  0.67495667  0.53300333  0.64421133  1
  O  O107  1  0.46699667  0.14195333  0.64421133  1
