# generated using pymatgen
data_Li9Fe3(WO4)7
_symmetry_space_group_name_H-M   'P 1'
_cell_length_a   12.07593567
_cell_length_b   12.07593567
_cell_length_c   14.84086257
_cell_angle_alpha   90.00000000
_cell_angle_beta   90.00000000
_cell_angle_gamma   120.00000000
_symmetry_Int_Tables_number   1
_chemical_formula_structural   Li9Fe3(WO4)7
_chemical_formula_sum   'Li27 Fe9 W21 O84'
_cell_volume   1874.26655957
_cell_formula_units_Z   3
loop_
 _symmetry_equiv_pos_site_id
 _symmetry_equiv_pos_as_xyz
  1  'x, y, z'
loop_
 _atom_site_type_symbol
 _atom_site_label
 _atom_site_symmetry_multiplicity
 _atom_site_fract_x
 _atom_site_fract_y
 _atom_site_fract_z
 _atom_site_occupancy
  Li  Li0  1  0.05830867  0.65862033  0.30206033  1
  Li  Li1  1  0.34137967  0.94169133  0.30206033  1
  Li  Li2  1  0.05830867  0.39968833  0.30206033  1
  Li  Li3  1  0.60031167  0.94169133  0.30206033  1
  Li  Li4  1  0.16113867  0.58056933  0.93453733  1
  Li  Li5  1  0.41943067  0.83886133  0.93453733  1
  Li  Li6  1  0.34137967  0.39968833  0.30206033  1
  Li  Li7  1  0.60031167  0.65862033  0.30206033  1
  Li  Li8  1  0.41943067  0.58056933  0.93453733  1
  Li  Li9  1  0.72497533  0.99195367  0.63539367  1
  Li  Li10  1  0.00804633  0.27502467  0.63539367  1
  Li  Li11  1  0.72497533  0.73302167  0.63539367  1
  Li  Li12  1  0.26697833  0.27502467  0.63539367  1
  Li  Li13  1  0.82780533  0.91390267  0.26787067  1
  Li  Li14  1  0.08609733  0.17219467  0.26787067  1
  Li  Li15  1  0.00804633  0.73302167  0.63539367  1
  Li  Li16  1  0.26697833  0.99195367  0.63539367  1
  Li  Li17  1  0.08609733  0.91390267  0.26787067  1
  Li  Li18  1  0.39164200  0.32528700  0.96872700  1
  Li  Li19  1  0.67471300  0.60835800  0.96872700  1
  Li  Li20  1  0.39164200  0.06635500  0.96872700  1
  Li  Li21  1  0.93364500  0.60835800  0.96872700  1
  Li  Li22  1  0.49447200  0.24723600  0.60120400  1
  Li  Li23  1  0.75276400  0.50552800  0.60120400  1
  Li  Li24  1  0.67471300  0.06635500  0.96872700  1
  Li  Li25  1  0.93364500  0.32528700  0.96872700  1
  Li  Li26  1  0.75276400  0.24723600  0.60120400  1
  Fe  Fe27  1  0.97494133  0.48747067  0.12486467  1
  Fe  Fe28  1  0.51252933  0.02505867  0.12486467  1
  Fe  Fe29  1  0.51252933  0.48747067  0.12486467  1
  Fe  Fe30  1  0.64160800  0.82080400  0.45819800  1
  Fe  Fe31  1  0.17919600  0.35839200  0.45819800  1
  Fe  Fe32  1  0.17919600  0.82080400  0.45819800  1
  Fe  Fe33  1  0.30827467  0.15413733  0.79153133  1
  Fe  Fe34  1  0.84586267  0.69172533  0.79153133  1
  Fe  Fe35  1  0.84586267  0.15413733  0.79153133  1
  W  W36  1  0.16717167  0.33434333  0.83334933  1
  W  W37  1  0.66565667  0.83282833  0.83334933  1
  W  W38  1  0.23880433  0.76119567  0.11992367  1
  W  W39  1  0.33333333  0.66666667  0.31206867  1
  W  W40  1  0.16717167  0.83282833  0.83334933  1
  W  W41  1  0.23880433  0.47760867  0.11992367  1
  W  W42  1  0.52239133  0.76119567  0.11992367  1
  W  W43  1  0.83383833  0.66767667  0.16668267  1
  W  W44  1  0.33232333  0.16616167  0.16668267  1
  W  W45  1  0.90547100  0.09452900  0.45325700  1
  W  W46  1  0.00000000  0.00000000  0.64540200  1
  W  W47  1  0.83383833  0.16616167  0.16668267  1
  W  W48  1  0.90547100  0.81094200  0.45325700  1
  W  W49  1  0.18905800  0.09452900  0.45325700  1
  W  W50  1  0.50050500  0.00101000  0.50001600  1
  W  W51  1  0.99899000  0.49949500  0.50001600  1
  W  W52  1  0.57213767  0.42786233  0.78659033  1
  W  W53  1  0.66666667  0.33333333  0.97873533  1
  W  W54  1  0.50050500  0.49949500  0.50001600  1
  W  W55  1  0.57213767  0.14427533  0.78659033  1
  W  W56  1  0.85572467  0.42786233  0.78659033  1
  O  O57  1  0.17685100  0.82314900  0.20551300  1
  O  O58  1  0.25057400  0.74942600  0.36309000  1
  O  O59  1  0.91727267  0.58612433  0.20833533  1
  O  O60  1  0.41387567  0.08272733  0.20833533  1
  O  O61  1  0.99949533  0.49974767  0.37851267  1
  O  O62  1  0.50025233  0.00050467  0.37851267  1
  O  O63  1  0.91727267  0.33114833  0.20833533  1
  O  O64  1  0.66885167  0.08272733  0.20833533  1
  O  O65  1  0.18396400  0.59198200  0.20081900  1
  O  O66  1  0.40801800  0.81603600  0.20081900  1
  O  O67  1  0.09687467  0.66320133  0.04892533  1
  O  O68  1  0.33679867  0.90312533  0.04892533  1
  O  O69  1  0.25057400  0.50114800  0.36309000  1
  O  O70  1  0.49885200  0.74942600  0.36309000  1
  O  O71  1  0.09687467  0.43367333  0.04892533  1
  O  O72  1  0.56632667  0.90312533  0.04892533  1
  O  O73  1  0.17685100  0.35370200  0.20551300  1
  O  O74  1  0.64629800  0.82314900  0.20551300  1
  O  O75  1  0.33333333  0.66666667  0.05860867  1
  O  O76  1  0.40801800  0.59198200  0.20081900  1
  O  O77  1  0.24801900  0.75198100  0.87496800  1
  O  O78  1  0.50025233  0.49974767  0.37851267  1
  O  O79  1  0.24801900  0.49603800  0.87496800  1
  O  O80  1  0.50396200  0.75198100  0.87496800  1
  O  O81  1  0.41387567  0.33114833  0.20833533  1
  O  O82  1  0.66885167  0.58612433  0.20833533  1
  O  O83  1  0.33679867  0.43367333  0.04892533  1
  O  O84  1  0.56632667  0.66320133  0.04892533  1
  O  O85  1  0.84351767  0.15648233  0.53884633  1
  O  O86  1  0.91724067  0.08275933  0.69642333  1
  O  O87  1  0.58393933  0.91945767  0.54166867  1
  O  O88  1  0.08054233  0.41606067  0.54166867  1
  O  O89  1  0.66616200  0.83308100  0.71184600  1
  O  O90  1  0.16691900  0.33383800  0.71184600  1
  O  O91  1  0.58393933  0.66448167  0.54166867  1
  O  O92  1  0.33551833  0.41606067  0.54166867  1
  O  O93  1  0.85063067  0.92531533  0.53415233  1
  O  O94  1  0.07468467  0.14936933  0.53415233  1
  O  O95  1  0.76354133  0.99653467  0.38225867  1
  O  O96  1  0.00346533  0.23645867  0.38225867  1
  O  O97  1  0.91724067  0.83448133  0.69642333  1
  O  O98  1  0.16551867  0.08275933  0.69642333  1
  O  O99  1  0.76354133  0.76700667  0.38225867  1
  O  O100  1  0.23299333  0.23645867  0.38225867  1
  O  O101  1  0.84351767  0.68703533  0.53884633  1
  O  O102  1  0.31296467  0.15648233  0.53884633  1
  O  O103  1  0.00000000  0.00000000  0.39194200  1
  O  O104  1  0.07468467  0.92531533  0.53415233  1
  O  O105  1  0.91468567  0.08531433  0.20830133  1
  O  O106  1  0.16691900  0.83308100  0.71184600  1
  O  O107  1  0.91468567  0.82937133  0.20830133  1
  O  O108  1  0.17062867  0.08531433  0.20830133  1
  O  O109  1  0.08054233  0.66448167  0.54166867  1
  O  O110  1  0.33551833  0.91945767  0.54166867  1
  O  O111  1  0.00346533  0.76700667  0.38225867  1
  O  O112  1  0.23299333  0.99653467  0.38225867  1
  O  O113  1  0.51018433  0.48981567  0.87217967  1
  O  O114  1  0.58390733  0.41609267  0.02975667  1
  O  O115  1  0.25060600  0.25279100  0.87500200  1
  O  O116  1  0.74720900  0.74939400  0.87500200  1
  O  O117  1  0.33282867  0.16641433  0.04517933  1
  O  O118  1  0.83358567  0.66717133  0.04517933  1
  O  O119  1  0.25060600  0.99781500  0.87500200  1
  O  O120  1  0.00218500  0.74939400  0.87500200  1
  O  O121  1  0.51729733  0.25864867  0.86748567  1
  O  O122  1  0.74135133  0.48270267  0.86748567  1
  O  O123  1  0.43020800  0.32986800  0.71559200  1
  O  O124  1  0.67013200  0.56979200  0.71559200  1
  O  O125  1  0.58390733  0.16781467  0.02975667  1
  O  O126  1  0.83218533  0.41609267  0.02975667  1
  O  O127  1  0.43020800  0.10034000  0.71559200  1
  O  O128  1  0.89966000  0.56979200  0.71559200  1
  O  O129  1  0.51018433  0.02036867  0.87217967  1
  O  O130  1  0.97963133  0.48981567  0.87217967  1
  O  O131  1  0.66666667  0.33333333  0.72527533  1
  O  O132  1  0.74135133  0.25864867  0.86748567  1
  O  O133  1  0.58135233  0.41864767  0.54163467  1
  O  O134  1  0.83358567  0.16641433  0.04517933  1
  O  O135  1  0.58135233  0.16270467  0.54163467  1
  O  O136  1  0.83729533  0.41864767  0.54163467  1
  O  O137  1  0.74720900  0.99781500  0.87500200  1
  O  O138  1  0.00218500  0.25279100  0.87500200  1
  O  O139  1  0.67013200  0.10034000  0.71559200  1
  O  O140  1  0.89966000  0.32986800  0.71559200  1
