# generated using pymatgen
data_LiCrPO4
_symmetry_space_group_name_H-M   'P 1'
_cell_length_a   4.78863300
_cell_length_b   10.13270700
_cell_length_c   7.27195621
_cell_angle_alpha   90.00000000
_cell_angle_beta   95.76621647
_cell_angle_gamma   90.00000000
_symmetry_Int_Tables_number   1
_chemical_formula_structural   LiCrPO4
_chemical_formula_sum   'Li4 Cr4 P4 O16'
_cell_volume   351.06314440
_cell_formula_units_Z   4
loop_
 _symmetry_equiv_pos_site_id
 _symmetry_equiv_pos_as_xyz
  1  'x, y, z'
loop_
 _atom_site_type_symbol
 _atom_site_label
 _atom_site_symmetry_multiplicity
 _atom_site_fract_x
 _atom_site_fract_y
 _atom_site_fract_z
 _atom_site_occupancy
  Li  Li0  1  0.26458400  0.69026500  0.24702800  1
  Li  Li1  1  0.65776400  0.26856600  0.25071000  1
  Li  Li2  1  0.34223600  0.76856600  0.74929000  1
  Li  Li3  1  0.73541600  0.19026500  0.75297200  1
  Cr  Cr4  1  0.17426400  0.99104600  0.06556700  1
  Cr  Cr5  1  0.73735900  0.91744900  0.44699300  1
  Cr  Cr6  1  0.26264100  0.41744900  0.55300700  1
  Cr  Cr7  1  0.82573600  0.49104600  0.93443300  1
  P  P8  1  0.79663700  0.79350600  0.05112300  1
  P  P9  1  0.27526900  0.09841400  0.48005600  1
  P  P10  1  0.72473100  0.59841400  0.51994400  1
  P  P11  1  0.20336300  0.29350600  0.94887700  1
  O  O12  1  0.90866200  0.65200600  0.08659000  1
  O  O13  1  0.47472700  0.79942300  0.03289100  1
  O  O14  1  0.08065100  0.36518700  0.11180600  1
  O  O15  1  0.94540800  0.86897900  0.22701900  1
  O  O16  1  0.37359500  0.09631900  0.28022900  1
  O  O17  1  0.59161300  0.72574400  0.43045100  1
  O  O18  1  0.95141500  0.09923100  0.47566300  1
  O  O19  1  0.59773400  0.47494500  0.41275400  1
  O  O20  1  0.40226600  0.97494500  0.58724600  1
  O  O21  1  0.04858500  0.59923100  0.52433700  1
  O  O22  1  0.40838700  0.22574400  0.56954900  1
  O  O23  1  0.62640500  0.59631900  0.71977100  1
  O  O24  1  0.05459200  0.36897900  0.77298100  1
  O  O25  1  0.91934900  0.86518700  0.88819400  1
  O  O26  1  0.52527300  0.29942300  0.96710900  1
  O  O27  1  0.09133800  0.15200600  0.91341000  1
