# generated using pymatgen
data_Mn5FeO12
_symmetry_space_group_name_H-M   'P 1'
_cell_length_a   5.08897600
_cell_length_b   8.82785600
_cell_length_c   9.82453247
_cell_angle_alpha   90.00000000
_cell_angle_beta   90.09487354
_cell_angle_gamma   90.00000000
_symmetry_Int_Tables_number   1
_chemical_formula_structural   Mn5FeO12
_chemical_formula_sum   'Mn10 Fe2 O24'
_cell_volume   441.36403357
_cell_formula_units_Z   2
loop_
 _symmetry_equiv_pos_site_id
 _symmetry_equiv_pos_as_xyz
  1  'x, y, z'
loop_
 _atom_site_type_symbol
 _atom_site_label
 _atom_site_symmetry_multiplicity
 _atom_site_fract_x
 _atom_site_fract_y
 _atom_site_fract_z
 _atom_site_occupancy
  Mn  Mn0  1  0.00000000  0.16667600  0.50000000  1
  Mn  Mn1  1  0.50000000  0.16673300  0.00000000  1
  Mn  Mn2  1  0.00000000  0.33326700  0.00000000  1
  Mn  Mn3  1  0.50000000  0.33332400  0.50000000  1
  Mn  Mn4  1  0.50000000  0.00000000  0.50000000  1
  Mn  Mn5  1  0.50000000  0.66667600  0.50000000  1
  Mn  Mn6  1  0.00000000  0.66673300  0.00000000  1
  Mn  Mn7  1  0.50000000  0.83326700  0.00000000  1
  Mn  Mn8  1  0.00000000  0.83332400  0.50000000  1
  Mn  Mn9  1  0.00000000  0.50000000  0.50000000  1
  Fe  Fe10  1  0.00000000  0.00000000  0.00000000  1
  Fe  Fe11  1  0.50000000  0.50000000  0.00000000  1
  O  O12  1  0.17006800  0.16992400  0.09834300  1
  O  O13  1  0.82993200  0.16992400  0.90165700  1
  O  O14  1  0.16625150  0.33333250  0.40316100  1
  O  O15  1  0.66625150  0.16666750  0.40316100  1
  O  O16  1  0.83374850  0.33333250  0.59683900  1
  O  O17  1  0.83375800  0.00000000  0.59685300  1
  O  O18  1  0.33374850  0.16666750  0.59683900  1
  O  O19  1  0.67006800  0.33007600  0.09834300  1
  O  O20  1  0.66127900  0.00000000  0.09805200  1
  O  O21  1  0.32993200  0.33007600  0.90165700  1
  O  O22  1  0.33872100  0.00000000  0.90194800  1
  O  O23  1  0.16624200  0.00000000  0.40314700  1
  O  O24  1  0.67006800  0.66992400  0.09834300  1
  O  O25  1  0.32993200  0.66992400  0.90165700  1
  O  O26  1  0.66625150  0.83333250  0.40316100  1
  O  O27  1  0.16625150  0.66666750  0.40316100  1
  O  O28  1  0.33374850  0.83333250  0.59683900  1
  O  O29  1  0.33375800  0.50000000  0.59685300  1
  O  O30  1  0.83374850  0.66666750  0.59683900  1
  O  O31  1  0.17006800  0.83007600  0.09834300  1
  O  O32  1  0.16127900  0.50000000  0.09805200  1
  O  O33  1  0.82993200  0.83007600  0.90165700  1
  O  O34  1  0.83872100  0.50000000  0.90194800  1
  O  O35  1  0.66624200  0.50000000  0.40314700  1
