# generated using pymatgen
data_Li4Cr3GaO8
_symmetry_space_group_name_H-M   'P 1'
_cell_length_a   5.11581375
_cell_length_b   5.92089333
_cell_length_c   5.16349561
_cell_angle_alpha   90.00000000
_cell_angle_beta   109.30436269
_cell_angle_gamma   90.00000000
_symmetry_Int_Tables_number   1
_chemical_formula_structural   Li4Cr3GaO8
_chemical_formula_sum   'Li4 Cr3 Ga1 O8'
_cell_volume   147.60959976
_cell_formula_units_Z   1
loop_
 _symmetry_equiv_pos_site_id
 _symmetry_equiv_pos_as_xyz
  1  'x, y, z'
loop_
 _atom_site_type_symbol
 _atom_site_label
 _atom_site_symmetry_multiplicity
 _atom_site_fract_x
 _atom_site_fract_y
 _atom_site_fract_z
 _atom_site_occupancy
  Li  Li0  1  0.50000000  0.00000000  0.50000000  1
  Li  Li1  1  0.50000000  0.50000000  0.50000000  1
  Li  Li2  1  0.00000000  0.75000400  0.50000000  1
  Li  Li3  1  0.00000000  0.24999600  0.50000000  1
  Cr  Cr4  1  0.00000000  0.50000000  0.00000000  1
  Cr  Cr5  1  0.50000000  0.75061100  0.00000000  1
  Cr  Cr6  1  0.50000000  0.24938900  0.00000000  1
  Ga  Ga7  1  0.00000000  0.00000000  0.00000000  1
  O  O8  1  0.25595500  0.00000000  0.77357850  1
  O  O9  1  0.74404500  0.00000000  0.22642150  1
  O  O10  1  0.25909400  0.50000000  0.77360250  1
  O  O11  1  0.74090600  0.50000000  0.22639750  1
  O  O12  1  0.24126100  0.75116900  0.22641050  1
  O  O13  1  0.75873900  0.75116900  0.77358950  1
  O  O14  1  0.24126100  0.24883100  0.22641050  1
  O  O15  1  0.75873900  0.24883100  0.77358950  1
