# generated using pymatgen
data_Li2CrFeO4
_symmetry_space_group_name_H-M   'P 1'
_cell_length_a   19.59639400
_cell_length_b   2.97296800
_cell_length_c   5.15944679
_cell_angle_alpha   90.00000000
_cell_angle_beta   95.43715872
_cell_angle_gamma   90.00000000
_symmetry_Int_Tables_number   1
_chemical_formula_structural   Li2CrFeO4
_chemical_formula_sum   'Li8 Cr4 Fe4 O16'
_cell_volume   299.23412135
_cell_formula_units_Z   4
loop_
 _symmetry_equiv_pos_site_id
 _symmetry_equiv_pos_as_xyz
  1  'x, y, z'
loop_
 _atom_site_type_symbol
 _atom_site_label
 _atom_site_symmetry_multiplicity
 _atom_site_fract_x
 _atom_site_fract_y
 _atom_site_fract_z
 _atom_site_occupancy
  Li  Li0  1  0.00000000  0.00000000  0.00000000  1
  Li  Li1  1  0.74888000  0.00000000  0.24438500  1
  Li  Li2  1  0.00000000  0.50000000  0.50000000  1
  Li  Li3  1  0.75112000  0.50000000  0.75561500  1
  Li  Li4  1  0.50000000  0.50000000  0.00000000  1
  Li  Li5  1  0.24888000  0.50000000  0.24438500  1
  Li  Li6  1  0.50000000  0.00000000  0.50000000  1
  Li  Li7  1  0.25112000  0.00000000  0.75561500  1
  Cr  Cr8  1  0.87417200  0.00000000  0.62595300  1
  Cr  Cr9  1  0.62582800  0.50000000  0.37404700  1
  Cr  Cr10  1  0.37417200  0.50000000  0.62595300  1
  Cr  Cr11  1  0.12582800  0.00000000  0.37404700  1
  Fe  Fe12  1  0.87429300  0.50000000  0.12614400  1
  Fe  Fe13  1  0.62570700  0.00000000  0.87385600  1
  Fe  Fe14  1  0.37429300  0.00000000  0.12614400  1
  Fe  Fe15  1  0.12570700  0.50000000  0.87385600  1
  O  O16  1  0.93151000  0.00000000  0.31524600  1
  O  O17  1  0.68137500  0.50000000  0.06203400  1
  O  O18  1  0.56787300  0.00000000  0.18736100  1
  O  O19  1  0.68016500  0.00000000  0.55831900  1
  O  O20  1  0.81983500  0.50000000  0.44168100  1
  O  O21  1  0.81862500  0.00000000  0.93796600  1
  O  O22  1  0.56849000  0.50000000  0.68475400  1
  O  O23  1  0.93212700  0.50000000  0.81263900  1
  O  O24  1  0.43151000  0.50000000  0.31524600  1
  O  O25  1  0.18137500  0.00000000  0.06203400  1
  O  O26  1  0.06787300  0.50000000  0.18736100  1
  O  O27  1  0.18016500  0.50000000  0.55831900  1
  O  O28  1  0.31983500  0.00000000  0.44168100  1
  O  O29  1  0.31862500  0.50000000  0.93796600  1
  O  O30  1  0.06849000  0.00000000  0.68475400  1
  O  O31  1  0.43212700  0.00000000  0.81263900  1
