# generated using pymatgen
data_Li4Fe2Cu3Te3O16
_symmetry_space_group_name_H-M   'P 1'
_cell_length_a   6.11330002
_cell_length_b   6.28014786
_cell_length_c   9.70003023
_cell_angle_alpha   92.18155692
_cell_angle_beta   90.61586276
_cell_angle_gamma   118.81438113
_symmetry_Int_Tables_number   1
_chemical_formula_structural   Li4Fe2Cu3Te3O16
_chemical_formula_sum   'Li4 Fe2 Cu3 Te3 O16'
_cell_volume   325.88174481
_cell_formula_units_Z   1
loop_
 _symmetry_equiv_pos_site_id
 _symmetry_equiv_pos_as_xyz
  1  'x, y, z'
loop_
 _atom_site_type_symbol
 _atom_site_label
 _atom_site_symmetry_multiplicity
 _atom_site_fract_x
 _atom_site_fract_y
 _atom_site_fract_z
 _atom_site_occupancy
  Li  Li0  1  0.68388700  0.34745800  0.09580400  1
  Li  Li1  1  0.99349400  0.00553400  0.98981400  1
  Li  Li2  1  0.02414200  0.05093400  0.51989200  1
  Li  Li3  1  0.34712000  0.69131300  0.61786900  1
  Fe  Fe4  1  0.63225700  0.29877400  0.52613200  1
  Fe  Fe5  1  0.31637100  0.62041600  0.99311700  1
  Cu  Cu6  1  0.82878300  0.16216900  0.78802500  1
  Cu  Cu7  1  0.33420500  0.16169200  0.79050100  1
  Cu  Cu8  1  0.18276000  0.33887700  0.28843500  1
  Te  Te9  1  0.82531900  0.64742500  0.78188500  1
  Te  Te10  1  0.66396300  0.83983800  0.28347400  1
  Te  Te11  1  0.16184100  0.82369200  0.28095300  1
  O  O12  1  0.82239200  0.14764600  0.39733900  1
  O  O13  1  0.52154900  0.05084000  0.66205300  1
  O  O14  1  0.67543900  0.34185800  0.88460900  1
  O  O15  1  0.98697200  0.97561900  0.70462400  1
  O  O16  1  0.96176400  0.97860200  0.17463600  1
  O  O17  1  0.33198300  0.19450800  0.41268400  1
  O  O18  1  0.96733800  0.51610400  0.64429100  1
  O  O19  1  0.54139400  0.51643400  0.65221700  1
  O  O20  1  0.15934000  0.31024700  0.90336400  1
  O  O21  1  0.83047600  0.70478300  0.39849100  1
  O  O22  1  0.49971900  0.53621300  0.16800500  1
  O  O23  1  0.04689800  0.51197400  0.16287000  1
  O  O24  1  0.37617900  0.70694300  0.40397900  1
  O  O25  1  0.65714200  0.77744200  0.90513500  1
  O  O26  1  0.50439100  0.96365600  0.15352800  1
  O  O27  1  0.12318200  0.77900900  0.90843500  1
