# generated using pymatgen
data_MnOF
_symmetry_space_group_name_H-M   'P 1'
_cell_length_a   6.54218800
_cell_length_b   6.56287400
_cell_length_c   12.67850565
_cell_angle_alpha   90.00000000
_cell_angle_beta   90.03705233
_cell_angle_gamma   90.00000000
_symmetry_Int_Tables_number   1
_chemical_formula_structural   MnOF
_chemical_formula_sum   'Mn16 O16 F16'
_cell_volume   544.35856957
_cell_formula_units_Z   16
loop_
 _symmetry_equiv_pos_site_id
 _symmetry_equiv_pos_as_xyz
  1  'x, y, z'
loop_
 _atom_site_type_symbol
 _atom_site_label
 _atom_site_symmetry_multiplicity
 _atom_site_fract_x
 _atom_site_fract_y
 _atom_site_fract_z
 _atom_site_occupancy
  Mn  Mn0  1  0.02886300  0.99542400  0.12437700  1
  Mn  Mn1  1  0.97113700  0.99542400  0.87562300  1
  Mn  Mn2  1  0.02894400  0.98270200  0.62538400  1
  Mn  Mn3  1  0.97105600  0.98270200  0.37461600  1
  Mn  Mn4  1  0.50000000  0.01531000  0.50000000  1
  Mn  Mn5  1  0.50000000  0.96825800  0.00000000  1
  Mn  Mn6  1  0.49855700  0.01988700  0.75077600  1
  Mn  Mn7  1  0.50144300  0.01988700  0.24922400  1
  Mn  Mn8  1  0.52886300  0.49542400  0.12437700  1
  Mn  Mn9  1  0.47113700  0.49542400  0.87562300  1
  Mn  Mn10  1  0.52894400  0.48270200  0.62538400  1
  Mn  Mn11  1  0.47105600  0.48270200  0.37461600  1
  Mn  Mn12  1  0.00000000  0.51531000  0.50000000  1
  Mn  Mn13  1  0.00000000  0.46825800  0.00000000  1
  Mn  Mn14  1  0.99855700  0.51988700  0.75077600  1
  Mn  Mn15  1  0.00144300  0.51988700  0.24922400  1
  O  O16  1  0.49955500  0.31337600  0.75329400  1
  O  O17  1  0.50000000  0.31060600  0.50000000  1
  O  O18  1  0.50044500  0.31337600  0.24670600  1
  O  O19  1  0.67627000  0.99209500  0.87490300  1
  O  O20  1  0.68104300  0.00898900  0.37526700  1
  O  O21  1  0.32373000  0.99209500  0.12509700  1
  O  O22  1  0.31895700  0.00898900  0.62473300  1
  O  O23  1  0.50000000  0.67414800  0.00000000  1
  O  O24  1  0.99955500  0.81337600  0.75329400  1
  O  O25  1  0.00000000  0.81060600  0.50000000  1
  O  O26  1  0.00044500  0.81337600  0.24670600  1
  O  O27  1  0.17627000  0.49209500  0.87490300  1
  O  O28  1  0.18104300  0.50898900  0.37526700  1
  O  O29  1  0.82373000  0.49209500  0.12509700  1
  O  O30  1  0.81895700  0.50898900  0.62473300  1
  O  O31  1  0.00000000  0.17414800  0.00000000  1
  F  F32  1  0.50000000  0.27216700  0.00000000  1
  F  F33  1  0.72441450  0.99543050  0.12551200  1
  F  F34  1  0.72496250  0.00564750  0.62454000  1
  F  F35  1  0.27558550  0.99543050  0.87448800  1
  F  F36  1  0.27503750  0.00564750  0.37546000  1
  F  F37  1  0.50203250  0.71267450  0.74236200  1
  F  F38  1  0.50000000  0.70706200  0.50000000  1
  F  F39  1  0.49796750  0.71267450  0.25763800  1
  F  F40  1  0.00000000  0.77216700  0.00000000  1
  F  F41  1  0.22441450  0.49543050  0.12551200  1
  F  F42  1  0.22496250  0.50564750  0.62454000  1
  F  F43  1  0.77558550  0.49543050  0.87448800  1
  F  F44  1  0.77503750  0.50564750  0.37546000  1
  F  F45  1  0.00203250  0.21267450  0.74236200  1
  F  F46  1  0.00000000  0.20706200  0.50000000  1
  F  F47  1  0.99796750  0.21267450  0.25763800  1
