# generated using pymatgen
data_Li2MnFe(BO3)2
_symmetry_space_group_name_H-M   'P 1'
_cell_length_a   8.26431600
_cell_length_b   3.16191500
_cell_length_c   14.31362748
_cell_angle_alpha   90.00000000
_cell_angle_beta   90.01477064
_cell_angle_gamma   90.00000000
_symmetry_Int_Tables_number   1
_chemical_formula_structural   Li2MnFe(BO3)2
_chemical_formula_sum   'Li6 Mn3 Fe3 B6 O18'
_cell_volume   374.03031359
_cell_formula_units_Z   3
loop_
 _symmetry_equiv_pos_site_id
 _symmetry_equiv_pos_as_xyz
  1  'x, y, z'
loop_
 _atom_site_type_symbol
 _atom_site_label
 _atom_site_symmetry_multiplicity
 _atom_site_fract_x
 _atom_site_fract_y
 _atom_site_fract_z
 _atom_site_occupancy
  Li  Li0  1  0.29256100  0.50000000  0.01051300  1
  Li  Li1  1  0.34198400  0.50000000  0.64201900  1
  Li  Li2  1  0.36731100  0.50000000  0.34809100  1
  Li  Li3  1  0.79295300  0.50000000  0.50655400  1
  Li  Li4  1  0.83986900  0.50000000  0.14228100  1
  Li  Li5  1  0.86546600  0.50000000  0.85050300  1
  Mn  Mn6  1  0.13416500  0.00000000  0.49363200  1
  Mn  Mn7  1  0.19197800  0.00000000  0.82016000  1
  Mn  Mn8  1  0.67433700  0.00000000  0.68591400  1
  Fe  Fe9  1  0.17573400  0.00000000  0.18369800  1
  Fe  Fe10  1  0.63644700  0.00000000  0.99660100  1
  Fe  Fe11  1  0.68692100  0.00000000  0.32005800  1
  B  B12  1  0.99965200  0.50000000  0.33139500  1
  B  B13  1  0.99804200  0.00000000  0.00055800  1
  B  B14  1  0.00019800  0.50000000  0.66667400  1
  B  B15  1  0.50031500  0.50000000  0.83538800  1
  B  B16  1  0.50188000  0.00000000  0.49951400  1
  B  B17  1  0.49996500  0.50000000  0.16646900  1
  O  O18  1  0.00898900  0.50000000  0.56969100  1
  O  O19  1  0.01797300  0.50000000  0.23466300  1
  O  O20  1  0.13685600  0.50000000  0.38828700  1
  O  O21  1  0.14131900  0.50000000  0.71948100  1
  O  O22  1  0.15065900  0.00000000  0.04242200  1
  O  O23  1  0.34721200  0.50000000  0.87603700  1
  O  O24  1  0.34760900  0.50000000  0.20829800  1
  O  O25  1  0.36466000  0.00000000  0.55619000  1
  O  O26  1  0.48607400  0.00000000  0.40238200  1
  O  O27  1  0.51295000  0.50000000  0.06955900  1
  O  O28  1  0.51459000  0.50000000  0.73819700  1
  O  O29  1  0.63772700  0.50000000  0.89159300  1
  O  O30  1  0.63880900  0.50000000  0.22166300  1
  O  O31  1  0.65534100  0.00000000  0.53954000  1
  O  O32  1  0.84572700  0.50000000  0.37131200  1
  O  O33  1  0.85061500  0.50000000  0.71089600  1
  O  O34  1  0.85954800  0.00000000  0.05601400  1
  O  O35  1  0.98356200  0.00000000  0.90375200  1
