# generated using pymatgen
data_Li3Co(NiO3)2
_symmetry_space_group_name_H-M   'P 1'
_cell_length_a   12.92107600
_cell_length_b   2.84505600
_cell_length_c   5.76674771
_cell_angle_alpha   90.00000000
_cell_angle_beta   103.13492150
_cell_angle_gamma   90.00000000
_symmetry_Int_Tables_number   1
_chemical_formula_structural   Li3Co(NiO3)2
_chemical_formula_sum   'Li6 Co2 Ni4 O12'
_cell_volume   206.44625545
_cell_formula_units_Z   2
loop_
 _symmetry_equiv_pos_site_id
 _symmetry_equiv_pos_as_xyz
  1  'x, y, z'
loop_
 _atom_site_type_symbol
 _atom_site_label
 _atom_site_symmetry_multiplicity
 _atom_site_fract_x
 _atom_site_fract_y
 _atom_site_fract_z
 _atom_site_occupancy
  Li  Li0  1  0.00000000  0.00000000  0.00000000  1
  Li  Li1  1  0.33618300  0.00000000  0.67355300  1
  Li  Li2  1  0.16381700  0.50000000  0.32644700  1
  Li  Li3  1  0.50000000  0.50000000  0.00000000  1
  Li  Li4  1  0.83618300  0.50000000  0.67355300  1
  Li  Li5  1  0.66381700  0.00000000  0.32644700  1
  Co  Co6  1  0.00000000  0.00000000  0.50000000  1
  Co  Co7  1  0.50000000  0.50000000  0.50000000  1
  Ni  Ni8  1  0.33594700  0.00000000  0.16638200  1
  Ni  Ni9  1  0.16405300  0.50000000  0.83361800  1
  Ni  Ni10  1  0.83594700  0.50000000  0.16638200  1
  Ni  Ni11  1  0.66405300  0.00000000  0.83361800  1
  O  O12  1  0.34631100  0.50000000  0.40339300  1
  O  O13  1  0.15368900  0.00000000  0.59660700  1
  O  O14  1  0.00108400  0.50000000  0.27568300  1
  O  O15  1  0.16864900  0.00000000  0.06548300  1
  O  O16  1  0.49891600  0.00000000  0.72431700  1
  O  O17  1  0.33135100  0.50000000  0.93451700  1
  O  O18  1  0.84631100  0.00000000  0.40339300  1
  O  O19  1  0.65368900  0.50000000  0.59660700  1
  O  O20  1  0.50108400  0.00000000  0.27568300  1
  O  O21  1  0.66864900  0.50000000  0.06548300  1
  O  O22  1  0.99891600  0.50000000  0.72431700  1
  O  O23  1  0.83135100  0.00000000  0.93451700  1
