# generated using pymatgen
data_Cr3Ni(PO4)4
_symmetry_space_group_name_H-M   'P 1'
_cell_length_a   4.78130000
_cell_length_b   5.77139500
_cell_length_c   9.93351597
_cell_angle_alpha   90.00000000
_cell_angle_beta   90.28159702
_cell_angle_gamma   90.00000000
_symmetry_Int_Tables_number   1
_chemical_formula_structural   Cr3Ni(PO4)4
_chemical_formula_sum   'Cr3 Ni1 P4 O16'
_cell_volume   274.10978701
_cell_formula_units_Z   1
loop_
 _symmetry_equiv_pos_site_id
 _symmetry_equiv_pos_as_xyz
  1  'x, y, z'
loop_
 _atom_site_type_symbol
 _atom_site_label
 _atom_site_symmetry_multiplicity
 _atom_site_fract_x
 _atom_site_fract_y
 _atom_site_fract_z
 _atom_site_occupancy
  Cr  Cr0  1  0.47488700  0.00000000  0.22913400  1
  Cr  Cr1  1  0.52998600  0.50000000  0.77159500  1
  Cr  Cr2  1  0.97181500  0.50000000  0.26980000  1
  Ni  Ni3  1  0.03809400  0.00000000  0.72798000  1
  P  P4  1  0.09221400  0.50000000  0.59470100  1
  P  P5  1  0.41287600  0.50000000  0.09171900  1
  P  P6  1  0.57595000  0.00000000  0.90710900  1
  P  P7  1  0.91624800  0.00000000  0.40748000  1
  O  O8  1  0.16481800  0.50000000  0.44545900  1
  O  O9  1  0.24736800  0.70338500  0.67136100  1
  O  O10  1  0.24736800  0.29661500  0.67136100  1
  O  O11  1  0.23156400  0.00000000  0.38622900  1
  O  O12  1  0.26096700  0.00000000  0.89613700  1
  O  O13  1  0.26533800  0.70620900  0.17075000  1
  O  O14  1  0.26533800  0.29379100  0.17075000  1
  O  O15  1  0.32696200  0.50000000  0.94450200  1
  O  O16  1  0.67097900  0.00000000  0.05437700  1
  O  O17  1  0.71695000  0.21057300  0.83007900  1
  O  O18  1  0.71695000  0.78942700  0.83007900  1
  O  O19  1  0.72881700  0.50000000  0.10900000  1
  O  O20  1  0.77633100  0.50000000  0.61382500  1
  O  O21  1  0.76608600  0.20585700  0.32673100  1
  O  O22  1  0.76608600  0.79414300  0.32673100  1
  O  O23  1  0.83600700  0.00000000  0.55310700  1
