# generated using pymatgen
data_Li3Cr(NiO2)4
_symmetry_space_group_name_H-M   'P 1'
_cell_length_a   10.17039200
_cell_length_b   5.87823600
_cell_length_c   5.90182771
_cell_angle_alpha   90.00000000
_cell_angle_beta   125.50061061
_cell_angle_gamma   90.00000000
_symmetry_Int_Tables_number   1
_chemical_formula_structural   Li3Cr(NiO2)4
_chemical_formula_sum   'Li6 Cr2 Ni8 O16'
_cell_volume   287.24598657
_cell_formula_units_Z   2
loop_
 _symmetry_equiv_pos_site_id
 _symmetry_equiv_pos_as_xyz
  1  'x, y, z'
loop_
 _atom_site_type_symbol
 _atom_site_label
 _atom_site_symmetry_multiplicity
 _atom_site_fract_x
 _atom_site_fract_y
 _atom_site_fract_z
 _atom_site_occupancy
  Li  Li0  1  0.75000000  0.75000000  0.00000000  1
  Li  Li1  1  0.00000000  0.00000000  0.50000000  1
  Li  Li2  1  0.75000000  0.25000000  0.00000000  1
  Li  Li3  1  0.25000000  0.25000000  0.00000000  1
  Li  Li4  1  0.50000000  0.50000000  0.50000000  1
  Li  Li5  1  0.25000000  0.75000000  0.00000000  1
  Cr  Cr6  1  0.00000000  0.50000000  0.00000000  1
  Cr  Cr7  1  0.50000000  0.00000000  0.00000000  1
  Ni  Ni8  1  0.50000000  0.00000000  0.50000000  1
  Ni  Ni9  1  0.00000000  0.00000000  0.00000000  1
  Ni  Ni10  1  0.25000000  0.25000000  0.50000000  1
  Ni  Ni11  1  0.75000000  0.25000000  0.50000000  1
  Ni  Ni12  1  0.00000000  0.50000000  0.50000000  1
  Ni  Ni13  1  0.50000000  0.50000000  0.00000000  1
  Ni  Ni14  1  0.75000000  0.75000000  0.50000000  1
  Ni  Ni15  1  0.25000000  0.75000000  0.50000000  1
  O  O16  1  0.76904900  0.50000000  0.75957600  1
  O  O17  1  0.99958050  0.73806350  0.23770600  1
  O  O18  1  0.99958050  0.26193650  0.23770600  1
  O  O19  1  0.25022300  0.50000000  0.72310200  1
  O  O20  1  0.24977700  0.00000000  0.27689800  1
  O  O21  1  0.50041950  0.23806350  0.76229400  1
  O  O22  1  0.50041950  0.76193650  0.76229400  1
  O  O23  1  0.73095100  0.00000000  0.24042400  1
  O  O24  1  0.26904900  0.00000000  0.75957600  1
  O  O25  1  0.49958050  0.23806350  0.23770600  1
  O  O26  1  0.49958050  0.76193650  0.23770600  1
  O  O27  1  0.75022300  0.00000000  0.72310200  1
  O  O28  1  0.74977700  0.50000000  0.27689800  1
  O  O29  1  0.00041950  0.73806350  0.76229400  1
  O  O30  1  0.00041950  0.26193650  0.76229400  1
  O  O31  1  0.23095100  0.50000000  0.24042400  1
