# generated using pymatgen
data_Li4Ti2V5O12
_symmetry_space_group_name_H-M   'P 1'
_cell_length_a   5.13011689
_cell_length_b   9.07716525
_cell_length_c   9.99241372
_cell_angle_alpha   90.00000000
_cell_angle_beta   101.54424129
_cell_angle_gamma   90.00000000
_symmetry_Int_Tables_number   1
_chemical_formula_structural   Li4Ti2V5O12
_chemical_formula_sum   'Li8 Ti4 V10 O24'
_cell_volume   455.90279555
_cell_formula_units_Z   2
loop_
 _symmetry_equiv_pos_site_id
 _symmetry_equiv_pos_as_xyz
  1  'x, y, z'
loop_
 _atom_site_type_symbol
 _atom_site_label
 _atom_site_symmetry_multiplicity
 _atom_site_fract_x
 _atom_site_fract_y
 _atom_site_fract_z
 _atom_site_occupancy
  Li  Li0  1  0.49451000  0.91775400  0.74209400  1
  Li  Li1  1  0.99289800  0.58757300  0.25257000  1
  Li  Li2  1  0.74790700  0.58190600  0.50284900  1
  Li  Li3  1  0.50750900  0.57860700  0.74043600  1
  Li  Li4  1  0.50549000  0.41775400  0.25790600  1
  Li  Li5  1  0.25209300  0.08190600  0.49715100  1
  Li  Li6  1  0.00710200  0.08757300  0.74743000  1
  Li  Li7  1  0.49249100  0.07860700  0.25956400  1
  Ti  Ti8  1  0.23861800  0.75481000  0.49039900  1
  Ti  Ti9  1  0.75507000  0.75189200  0.99836100  1
  Ti  Ti10  1  0.24493000  0.25189200  0.00163900  1
  Ti  Ti11  1  0.76138200  0.25481000  0.50960100  1
  V  V12  1  0.24733700  0.91622900  0.00502600  1
  V  V13  1  0.75434600  0.92219000  0.50148700  1
  V  V14  1  0.99671900  0.74091800  0.74238200  1
  V  V15  1  0.49952600  0.75075000  0.24822000  1
  V  V16  1  0.25071600  0.57524800  0.99396300  1
  V  V17  1  0.24565400  0.42219000  0.49851300  1
  V  V18  1  0.75266300  0.41622900  0.99497400  1
  V  V19  1  0.00328100  0.24091800  0.25761800  1
  V  V20  1  0.50047400  0.25075000  0.75178000  1
  V  V21  1  0.74928400  0.07524800  0.00603700  1
  O  O22  1  0.12677700  0.90680600  0.61440400  1
  O  O23  1  0.86662400  0.90621000  0.87817900  1
  O  O24  1  0.87200400  0.75147300  0.38274300  1
  O  O25  1  0.39139800  0.90629900  0.38283000  1
  O  O26  1  0.62693100  0.90160000  0.12317300  1
  O  O27  1  0.12574900  0.74147600  0.11597000  1
  O  O28  1  0.14995400  0.59589500  0.60634900  1
  O  O29  1  0.61272800  0.75975900  0.61132800  1
  O  O30  1  0.38296000  0.75116300  0.88184300  1
  O  O31  1  0.85445300  0.59599900  0.88077300  1
  O  O32  1  0.63911400  0.59046000  0.11949500  1
  O  O33  1  0.36198700  0.59848900  0.37444500  1
  O  O34  1  0.87322300  0.40680600  0.38559600  1
  O  O35  1  0.13337600  0.40621000  0.12182100  1
  O  O36  1  0.12799600  0.25147300  0.61725700  1
  O  O37  1  0.60860200  0.40629900  0.61717000  1
  O  O38  1  0.87425100  0.24147600  0.88403000  1
  O  O39  1  0.37306900  0.40160000  0.87682700  1
  O  O40  1  0.38727200  0.25975900  0.38867200  1
  O  O41  1  0.14554700  0.09599900  0.11922700  1
  O  O42  1  0.85004600  0.09589500  0.39365100  1
  O  O43  1  0.61704000  0.25116300  0.11815700  1
  O  O44  1  0.63801300  0.09848900  0.62555500  1
  O  O45  1  0.36088600  0.09046000  0.88050500  1
