# generated using pymatgen
data_Na2CoO3
_symmetry_space_group_name_H-M   'P 1'
_cell_length_a   5.20065000
_cell_length_b   8.97821600
_cell_length_c   5.64523931
_cell_angle_alpha   90.00000000
_cell_angle_beta   108.83592081
_cell_angle_gamma   90.00000000
_symmetry_Int_Tables_number   1
_chemical_formula_structural   Na2CoO3
_chemical_formula_sum   'Na8 Co4 O12'
_cell_volume   249.47460755
_cell_formula_units_Z   4
loop_
 _symmetry_equiv_pos_site_id
 _symmetry_equiv_pos_as_xyz
  1  'x, y, z'
loop_
 _atom_site_type_symbol
 _atom_site_label
 _atom_site_symmetry_multiplicity
 _atom_site_fract_x
 _atom_site_fract_y
 _atom_site_fract_z
 _atom_site_occupancy
  Na  Na0  1  0.50000000  0.65768900  0.50000000  1
  Na  Na1  1  0.50000000  0.34231100  0.50000000  1
  Na  Na2  1  0.50000000  0.00000000  0.50000000  1
  Na  Na3  1  0.00000000  0.00000000  0.00000000  1
  Na  Na4  1  0.00000000  0.15768900  0.50000000  1
  Na  Na5  1  0.00000000  0.84231100  0.50000000  1
  Na  Na6  1  0.00000000  0.50000000  0.50000000  1
  Na  Na7  1  0.50000000  0.50000000  0.00000000  1
  Co  Co8  1  0.50000000  0.17067500  0.00000000  1
  Co  Co9  1  0.50000000  0.82932500  0.00000000  1
  Co  Co10  1  0.00000000  0.67067500  0.00000000  1
  Co  Co11  1  0.00000000  0.32932500  0.00000000  1
  O  O12  1  0.31282400  0.00000000  0.80118100  1
  O  O13  1  0.25448950  0.80861050  0.19812600  1
  O  O14  1  0.25448950  0.19138950  0.19812600  1
  O  O15  1  0.74551050  0.19138950  0.80187400  1
  O  O16  1  0.74551050  0.80861050  0.80187400  1
  O  O17  1  0.68717600  0.00000000  0.19881900  1
  O  O18  1  0.81282400  0.50000000  0.80118100  1
  O  O19  1  0.75448950  0.30861050  0.19812600  1
  O  O20  1  0.75448950  0.69138950  0.19812600  1
  O  O21  1  0.24551050  0.69138950  0.80187400  1
  O  O22  1  0.24551050  0.30861050  0.80187400  1
  O  O23  1  0.18717600  0.50000000  0.19881900  1
