# generated using pymatgen
data_Li3Mn2(P2O7)2
_symmetry_space_group_name_H-M   'P 1'
_cell_length_a   5.07117264
_cell_length_b   7.00400079
_cell_length_c   8.33744483
_cell_angle_alpha   89.67638841
_cell_angle_beta   91.27312172
_cell_angle_gamma   108.25065723
_symmetry_Int_Tables_number   1
_chemical_formula_structural   Li3Mn2(P2O7)2
_chemical_formula_sum   'Li3 Mn2 P4 O14'
_cell_volume   281.16697955
_cell_formula_units_Z   1
loop_
 _symmetry_equiv_pos_site_id
 _symmetry_equiv_pos_as_xyz
  1  'x, y, z'
loop_
 _atom_site_type_symbol
 _atom_site_label
 _atom_site_symmetry_multiplicity
 _atom_site_fract_x
 _atom_site_fract_y
 _atom_site_fract_z
 _atom_site_occupancy
  Li  Li0  1  0.16820500  0.66008700  0.85447600  1
  Li  Li1  1  0.27623700  0.09073900  0.16357700  1
  Li  Li2  1  0.82521100  0.33977600  0.36223100  1
  Mn  Mn3  1  0.22532000  0.73108300  0.50792700  1
  Mn  Mn4  1  0.79559000  0.27054800  0.98855600  1
  P  P5  1  0.39317800  0.52604100  0.19148100  1
  P  P6  1  0.21373600  0.08079600  0.78190800  1
  P  P7  1  0.80090600  0.91633400  0.30020000  1
  P  P8  1  0.59804900  0.47651700  0.67716900  1
  O  O9  1  0.07965800  0.87648500  0.33815100  1
  O  O10  1  0.15096800  0.87876400  0.69139100  1
  O  O11  1  0.19978800  0.50678900  0.04624100  1
  O  O12  1  0.23496300  0.52293600  0.34941500  1
  O  O13  1  0.38728400  0.59694000  0.67514400  1
  O  O14  1  0.62399700  0.92722600  0.44016300  1
  O  O15  1  0.62598100  0.74349100  0.17510300  1
  O  O16  1  0.41578500  0.24085500  0.66108400  1
  O  O17  1  0.37478500  0.07034900  0.93942200  1
  O  O18  1  0.54340500  0.36634500  0.19734600  1
  O  O19  1  0.75296500  0.50662200  0.83886200  1
  O  O20  1  0.78673800  0.51520100  0.53312600  1
  O  O21  1  0.88427000  0.11061600  0.19907200  1
  O  O22  1  0.95486900  0.13793800  0.80765000  1
