# generated using pymatgen
data_Mn2NbV3(PO4)6
_symmetry_space_group_name_H-M   'P 1'
_cell_length_a   8.72633650
_cell_length_b   8.72633650
_cell_length_c   21.38878508
_cell_angle_alpha   90.00000000
_cell_angle_beta   90.00000000
_cell_angle_gamma   120.00000000
_symmetry_Int_Tables_number   1
_chemical_formula_structural   Mn2NbV3(PO4)6
_chemical_formula_sum   'Mn6 Nb3 V9 P18 O72'
_cell_volume   1410.52458585
_cell_formula_units_Z   3
loop_
 _symmetry_equiv_pos_site_id
 _symmetry_equiv_pos_as_xyz
  1  'x, y, z'
loop_
 _atom_site_type_symbol
 _atom_site_label
 _atom_site_symmetry_multiplicity
 _atom_site_fract_x
 _atom_site_fract_y
 _atom_site_fract_z
 _atom_site_occupancy
  Mn  Mn0  1  0.00000000  0.00000000  0.00427400  1
  Mn  Mn1  1  0.33333333  0.66666667  0.16721567  1
  Mn  Mn2  1  0.66666667  0.33333333  0.33760733  1
  Mn  Mn3  1  0.00000000  0.00000000  0.50054900  1
  Mn  Mn4  1  0.33333333  0.66666667  0.67094067  1
  Mn  Mn5  1  0.66666667  0.33333333  0.83388233  1
  Nb  Nb6  1  0.66666667  0.33333333  0.18957833  1
  Nb  Nb7  1  0.33333333  0.66666667  0.52291167  1
  Nb  Nb8  1  0.00000000  0.00000000  0.85624500  1
  V  V9  1  0.33333333  0.66666667  0.02344967  1
  V  V10  1  0.00000000  0.00000000  0.14525500  1
  V  V11  1  0.33333333  0.66666667  0.30978467  1
  V  V12  1  0.00000000  0.00000000  0.35678300  1
  V  V13  1  0.66666667  0.33333333  0.47858833  1
  V  V14  1  0.00000000  0.00000000  0.64311800  1
  V  V15  1  0.66666667  0.33333333  0.69011633  1
  V  V16  1  0.33333333  0.66666667  0.81192167  1
  V  V17  1  0.66666667  0.33333333  0.97645133  1
  P  P18  1  0.37084867  0.03727733  0.08097233  1
  P  P19  1  0.66642867  0.62915133  0.08097233  1
  P  P20  1  0.96272267  0.33357133  0.08097233  1
  P  P21  1  0.70786967  0.99526433  0.25056433  1
  P  P22  1  0.00473567  0.71260533  0.25056433  1
  P  P23  1  0.28739467  0.29213033  0.25056433  1
  P  P24  1  0.03751533  0.37061067  0.41430567  1
  P  P25  1  0.33309533  0.96248467  0.41430567  1
  P  P26  1  0.62938933  0.66690467  0.41430567  1
  P  P27  1  0.37453633  0.32859767  0.58389767  1
  P  P28  1  0.67140233  0.04593867  0.58389767  1
  P  P29  1  0.95406133  0.62546367  0.58389767  1
  P  P30  1  0.70418200  0.70394400  0.74763900  1
  P  P31  1  0.99976200  0.29581800  0.74763900  1
  P  P32  1  0.29605600  0.00023800  0.74763900  1
  P  P33  1  0.04120300  0.66193100  0.91723100  1
  P  P34  1  0.33806900  0.37927200  0.91723100  1
  P  P35  1  0.62072800  0.95879700  0.91723100  1
  O  O36  1  0.66867300  0.53001500  0.02376800  1
  O  O37  1  0.86134200  0.33132700  0.02376800  1
  O  O38  1  0.46998500  0.13865800  0.02376800  1
  O  O39  1  0.18481667  0.01910433  0.07916733  1
  O  O40  1  0.47561033  0.14264967  0.14158867  1
  O  O41  1  0.35443833  0.85348567  0.08901867  1
  O  O42  1  0.83428767  0.81518333  0.07916733  1
  O  O43  1  0.49904733  0.64556167  0.08901867  1
  O  O44  1  0.80388300  0.99868600  0.19031400  1
  O  O45  1  0.14651433  0.50095267  0.08901867  1
  O  O46  1  0.68499533  0.16638767  0.25358767  1
  O  O47  1  0.00131400  0.80519700  0.19031400  1
  O  O48  1  0.66703933  0.52438967  0.14158867  1
  O  O49  1  0.98089567  0.16571233  0.07916733  1
  O  O50  1  0.51869367  0.83310933  0.24554933  1
  O  O51  1  0.85735033  0.33296067  0.14158867  1
  O  O52  1  0.16689067  0.68558433  0.24554933  1
  O  O53  1  0.83361233  0.51860767  0.25358767  1
  O  O54  1  0.31441567  0.48130633  0.24554933  1
  O  O55  1  0.19480300  0.19611700  0.19031400  1
  O  O56  1  0.48139233  0.31500467  0.25358767  1
  O  O57  1  0.19788567  0.19325833  0.31005733  1
  O  O58  1  0.80674167  0.00462733  0.31005733  1
  O  O59  1  0.99537267  0.80211433  0.31005733  1
  O  O60  1  0.33533967  0.86334833  0.35710133  1
  O  O61  1  0.52800867  0.66466033  0.35710133  1
  O  O62  1  0.13665167  0.47199133  0.35710133  1
  O  O63  1  0.85148333  0.35243767  0.41250067  1
  O  O64  1  0.14227700  0.47598300  0.47492200  1
  O  O65  1  0.02110500  0.18681900  0.42235200  1
  O  O66  1  0.50095433  0.14851667  0.41250067  1
  O  O67  1  0.16571400  0.97889500  0.42235200  1
  O  O68  1  0.47054967  0.33201933  0.52364733  1
  O  O69  1  0.81318100  0.83428600  0.42235200  1
  O  O70  1  0.35166200  0.49972100  0.58692100  1
  O  O71  1  0.66798067  0.13853033  0.52364733  1
  O  O72  1  0.33370600  0.85772300  0.47492200  1
  O  O73  1  0.64756233  0.49904567  0.41250067  1
  O  O74  1  0.18536033  0.16644267  0.57888267  1
  O  O75  1  0.52401700  0.66629400  0.47492200  1
  O  O76  1  0.83355733  0.01891767  0.57888267  1
  O  O77  1  0.50027900  0.85194100  0.58692100  1
  O  O78  1  0.98108233  0.81463967  0.57888267  1
  O  O79  1  0.86146967  0.52945033  0.52364733  1
  O  O80  1  0.14805900  0.64833800  0.58692100  1
  O  O81  1  0.86455233  0.52659167  0.64339067  1
  O  O82  1  0.47340833  0.33796067  0.64339067  1
  O  O83  1  0.66203933  0.13544767  0.64339067  1
  O  O84  1  0.00200633  0.19668167  0.69043467  1
  O  O85  1  0.19467533  0.99799367  0.69043467  1
  O  O86  1  0.80331833  0.80532467  0.69043467  1
  O  O87  1  0.51815000  0.68577100  0.74583400  1
  O  O88  1  0.80894367  0.80931633  0.80825533  1
  O  O89  1  0.68777167  0.52015233  0.75568533  1
  O  O90  1  0.16762100  0.48185000  0.74583400  1
  O  O91  1  0.83238067  0.31222833  0.75568533  1
  O  O92  1  0.13721633  0.66535267  0.85698067  1
  O  O93  1  0.47984767  0.16761933  0.75568533  1
  O  O94  1  0.01832867  0.83305433  0.92025433  1
  O  O95  1  0.33464733  0.47186367  0.85698067  1
  O  O96  1  0.00037267  0.19105633  0.80825533  1
  O  O97  1  0.31422900  0.83237900  0.74583400  1
  O  O98  1  0.85202700  0.49977600  0.91221600  1
  O  O99  1  0.19068367  0.99962733  0.80825533  1
  O  O100  1  0.50022400  0.35225100  0.91221600  1
  O  O101  1  0.16694567  0.18527433  0.92025433  1
  O  O102  1  0.64774900  0.14797300  0.91221600  1
  O  O103  1  0.52813633  0.86278367  0.85698067  1
  O  O104  1  0.81472567  0.98167133  0.92025433  1
  O  O105  1  0.53121900  0.85992500  0.97672400  1
  O  O106  1  0.14007500  0.67129400  0.97672400  1
  O  O107  1  0.32870600  0.46878100  0.97672400  1
