# generated using pymatgen
data_TiSnSb
_symmetry_space_group_name_H-M   'P 1'
_cell_length_a   5.51052600
_cell_length_b   9.83840000
_cell_length_c   19.57050800
_cell_angle_alpha   90.00000000
_cell_angle_beta   90.00000000
_cell_angle_gamma   90.00000000
_symmetry_Int_Tables_number   1
_chemical_formula_structural   TiSnSb
_chemical_formula_sum   'Ti16 Sn16 Sb16'
_cell_volume   1061.01037470
_cell_formula_units_Z   16
loop_
 _symmetry_equiv_pos_site_id
 _symmetry_equiv_pos_as_xyz
  1  'x, y, z'
loop_
 _atom_site_type_symbol
 _atom_site_label
 _atom_site_symmetry_multiplicity
 _atom_site_fract_x
 _atom_site_fract_y
 _atom_site_fract_z
 _atom_site_occupancy
  Ti  Ti0  1  0.25000000  0.75000000  0.62357100  1
  Ti  Ti1  1  0.25000000  0.75000000  0.87642900  1
  Ti  Ti2  1  0.50000000  0.00000000  0.62642900  1
  Ti  Ti3  1  0.00000000  0.00000000  0.87357100  1
  Ti  Ti4  1  0.25000000  0.25000000  0.12357100  1
  Ti  Ti5  1  0.25000000  0.25000000  0.37642900  1
  Ti  Ti6  1  0.50000000  0.50000000  0.12642900  1
  Ti  Ti7  1  0.00000000  0.50000000  0.37357100  1
  Ti  Ti8  1  0.75000000  0.75000000  0.12357100  1
  Ti  Ti9  1  0.75000000  0.75000000  0.37642900  1
  Ti  Ti10  1  0.00000000  0.00000000  0.12642900  1
  Ti  Ti11  1  0.50000000  0.00000000  0.37357100  1
  Ti  Ti12  1  0.75000000  0.25000000  0.62357100  1
  Ti  Ti13  1  0.75000000  0.25000000  0.87642900  1
  Ti  Ti14  1  0.00000000  0.50000000  0.62642900  1
  Ti  Ti15  1  0.50000000  0.50000000  0.87357100  1
  Sn  Sn16  1  0.25000000  0.91723100  0.75000000  1
  Sn  Sn17  1  0.25000000  0.58276900  0.75000000  1
  Sn  Sn18  1  0.00000000  0.83276900  0.00000000  1
  Sn  Sn19  1  0.50000000  0.66723100  0.00000000  1
  Sn  Sn20  1  0.25000000  0.41723100  0.25000000  1
  Sn  Sn21  1  0.25000000  0.08276900  0.25000000  1
  Sn  Sn22  1  0.00000000  0.33276900  0.50000000  1
  Sn  Sn23  1  0.50000000  0.16723100  0.50000000  1
  Sn  Sn24  1  0.75000000  0.91723100  0.25000000  1
  Sn  Sn25  1  0.75000000  0.58276900  0.25000000  1
  Sn  Sn26  1  0.50000000  0.83276900  0.50000000  1
  Sn  Sn27  1  0.00000000  0.66723100  0.50000000  1
  Sn  Sn28  1  0.75000000  0.41723100  0.75000000  1
  Sn  Sn29  1  0.75000000  0.08276900  0.75000000  1
  Sn  Sn30  1  0.50000000  0.33276900  0.00000000  1
  Sn  Sn31  1  0.00000000  0.16723100  0.00000000  1
  Sb  Sb32  1  0.75000000  0.75000000  0.67232000  1
  Sb  Sb33  1  0.75000000  0.75000000  0.82768000  1
  Sb  Sb34  1  0.00000000  0.00000000  0.57768000  1
  Sb  Sb35  1  0.50000000  0.00000000  0.92232000  1
  Sb  Sb36  1  0.75000000  0.25000000  0.17232000  1
  Sb  Sb37  1  0.75000000  0.25000000  0.32768000  1
  Sb  Sb38  1  0.00000000  0.50000000  0.07768000  1
  Sb  Sb39  1  0.50000000  0.50000000  0.42232000  1
  Sb  Sb40  1  0.25000000  0.75000000  0.17232000  1
  Sb  Sb41  1  0.25000000  0.75000000  0.32768000  1
  Sb  Sb42  1  0.50000000  0.00000000  0.07768000  1
  Sb  Sb43  1  0.00000000  0.00000000  0.42232000  1
  Sb  Sb44  1  0.25000000  0.25000000  0.67232000  1
  Sb  Sb45  1  0.25000000  0.25000000  0.82768000  1
  Sb  Sb46  1  0.50000000  0.50000000  0.57768000  1
  Sb  Sb47  1  0.00000000  0.50000000  0.92232000  1
