# generated using pymatgen
data_LiVCo3(PO4)6
_symmetry_space_group_name_H-M   'P 1'
_cell_length_a   8.55284348
_cell_length_b   8.55284348
_cell_length_c   21.30480137
_cell_angle_alpha   90.00000000
_cell_angle_beta   90.00000000
_cell_angle_gamma   120.00000000
_symmetry_Int_Tables_number   1
_chemical_formula_structural   LiVCo3(PO4)6
_chemical_formula_sum   'Li3 V3 Co9 P18 O72'
_cell_volume   1349.67489456
_cell_formula_units_Z   3
loop_
 _symmetry_equiv_pos_site_id
 _symmetry_equiv_pos_as_xyz
  1  'x, y, z'
loop_
 _atom_site_type_symbol
 _atom_site_label
 _atom_site_symmetry_multiplicity
 _atom_site_fract_x
 _atom_site_fract_y
 _atom_site_fract_z
 _atom_site_occupancy
  Li  Li0  1  0.66666667  0.33333333  0.32152533  1
  Li  Li1  1  0.33333333  0.66666667  0.65485867  1
  Li  Li2  1  0.00000000  0.00000000  0.98819200  1
  V  V3  1  0.00000000  0.00000000  0.14301300  1
  V  V4  1  0.66666667  0.33333333  0.47634633  1
  V  V5  1  0.33333333  0.66666667  0.80967967  1
  Co  Co6  1  0.66666667  0.33333333  0.18944733  1
  Co  Co7  1  0.33333333  0.66666667  0.30412467  1
  Co  Co8  1  0.33333333  0.66666667  0.02998267  1
  Co  Co9  1  0.33333333  0.66666667  0.52278067  1
  Co  Co10  1  0.00000000  0.00000000  0.63745800  1
  Co  Co11  1  0.00000000  0.00000000  0.36331600  1
  Co  Co12  1  0.00000000  0.00000000  0.85611400  1
  Co  Co13  1  0.66666667  0.33333333  0.97079133  1
  Co  Co14  1  0.66666667  0.33333333  0.69664933  1
  P  P15  1  0.71549033  0.70920567  0.25081767  1
  P  P16  1  0.29079433  0.00628467  0.25081767  1
  P  P17  1  0.99371533  0.28450967  0.25081767  1
  P  P18  1  0.67188300  0.05406500  0.08349000  1
  P  P19  1  0.38218200  0.32811700  0.08349000  1
  P  P20  1  0.94593500  0.61781800  0.08349000  1
  P  P21  1  0.38215700  0.04253900  0.58415100  1
  P  P22  1  0.95746100  0.33961800  0.58415100  1
  P  P23  1  0.66038200  0.61784300  0.58415100  1
  P  P24  1  0.33854967  0.38739833  0.41682333  1
  P  P25  1  0.04884867  0.66145033  0.41682333  1
  P  P26  1  0.61260167  0.95115133  0.41682333  1
  P  P27  1  0.04882367  0.37587233  0.91748433  1
  P  P28  1  0.62412767  0.67295133  0.91748433  1
  P  P29  1  0.32704867  0.95117633  0.91748433  1
  P  P30  1  0.00521633  0.72073167  0.75015667  1
  P  P31  1  0.71551533  0.99478367  0.75015667  1
  P  P32  1  0.27926833  0.28448467  0.75015667  1
  O  O33  1  0.83331033  0.53844267  0.02381467  1
  O  O34  1  0.70513233  0.16668967  0.02381467  1
  O  O35  1  0.68661733  0.51457667  0.24907867  1
  O  O36  1  0.46155733  0.29486767  0.02381467  1
  O  O37  1  0.53265267  0.70382133  0.25031333  1
  O  O38  1  0.81755300  0.81881900  0.19110600  1
  O  O39  1  0.48542333  0.17204067  0.24907867  1
  O  O40  1  0.29617867  0.82883133  0.25031333  1
  O  O41  1  0.17116867  0.46734733  0.25031333  1
  O  O42  1  0.65161333  0.13773967  0.14446267  1
  O  O43  1  0.83680167  0.02108033  0.08731433  1
  O  O44  1  0.48612633  0.34838667  0.14446267  1
  O  O45  1  0.18118100  0.99873400  0.19110600  1
  O  O46  1  0.82795933  0.31338267  0.24907867  1
  O  O47  1  0.00126600  0.18244700  0.19110600  1
  O  O48  1  0.50404833  0.86511167  0.08038467  1
  O  O49  1  0.36106333  0.49595167  0.08038467  1
  O  O50  1  0.18427867  0.16319833  0.08731433  1
  O  O51  1  0.86226033  0.51387367  0.14446267  1
  O  O52  1  0.13488833  0.63893667  0.08038467  1
  O  O53  1  0.20398900  0.02835300  0.30985400  1
  O  O54  1  0.97891967  0.81572133  0.08731433  1
  O  O55  1  0.97164700  0.17563600  0.30985400  1
  O  O56  1  0.82436400  0.79601100  0.30985400  1
  O  O57  1  0.49997700  0.87177600  0.35714800  1
  O  O58  1  0.37179900  0.50002300  0.35714800  1
  O  O59  1  0.35328400  0.84791000  0.58241200  1
  O  O60  1  0.12822400  0.62820100  0.35714800  1
  O  O61  1  0.19931933  0.03715467  0.58364667  1
  O  O62  1  0.48421967  0.15215233  0.52443933  1
  O  O63  1  0.15209000  0.50537400  0.58241200  1
  O  O64  1  0.96284533  0.16216467  0.58364667  1
  O  O65  1  0.83783533  0.80068067  0.58364667  1
  O  O66  1  0.31828000  0.47107300  0.47779600  1
  O  O67  1  0.50346833  0.35441367  0.42064767  1
  O  O68  1  0.15279300  0.68172000  0.47779600  1
  O  O69  1  0.84784767  0.33206733  0.52443933  1
  O  O70  1  0.49462600  0.64671600  0.58241200  1
  O  O71  1  0.66793267  0.51578033  0.52443933  1
  O  O72  1  0.17071500  0.19844500  0.41371800  1
  O  O73  1  0.02773000  0.82928500  0.41371800  1
  O  O74  1  0.85094533  0.49653167  0.42064767  1
  O  O75  1  0.52892700  0.84720700  0.47779600  1
  O  O76  1  0.80155500  0.97227000  0.41371800  1
  O  O77  1  0.87065567  0.36168633  0.64318733  1
  O  O78  1  0.64558633  0.14905467  0.42064767  1
  O  O79  1  0.63831367  0.50896933  0.64318733  1
  O  O80  1  0.49103067  0.12934433  0.64318733  1
  O  O81  1  0.16664367  0.20510933  0.69048133  1
  O  O82  1  0.03846567  0.83335633  0.69048133  1
  O  O83  1  0.01995067  0.18124333  0.91574533  1
  O  O84  1  0.79489067  0.96153433  0.69048133  1
  O  O85  1  0.86598600  0.37048800  0.91698000  1
  O  O86  1  0.15088633  0.48548567  0.85777267  1
  O  O87  1  0.81875667  0.83870733  0.91574533  1
  O  O88  1  0.62951200  0.49549800  0.91698000  1
  O  O89  1  0.50450200  0.13401400  0.91698000  1
  O  O90  1  0.98494667  0.80440633  0.81112933  1
  O  O91  1  0.17013500  0.68774700  0.75398100  1
  O  O92  1  0.81945967  0.01505333  0.81112933  1
  O  O93  1  0.51451433  0.66540067  0.85777267  1
  O  O94  1  0.16129267  0.98004933  0.91574533  1
  O  O95  1  0.33459933  0.84911367  0.85777267  1
  O  O96  1  0.83738167  0.53177833  0.74705133  1
  O  O97  1  0.69439667  0.16261833  0.74705133  1
  O  O98  1  0.51761200  0.82986500  0.75398100  1
  O  O99  1  0.19559367  0.18054033  0.81112933  1
  O  O100  1  0.46822167  0.30560333  0.74705133  1
  O  O101  1  0.53732233  0.69501967  0.97652067  1
  O  O102  1  0.31225300  0.48238800  0.75398100  1
  O  O103  1  0.30498033  0.84230267  0.97652067  1
  O  O104  1  0.15769733  0.46267767  0.97652067  1
