# generated using pymatgen
data_LiFePO4
_symmetry_space_group_name_H-M   'P 1'
_cell_length_a   5.14273600
_cell_length_b   8.93646400
_cell_length_c   8.20332385
_cell_angle_alpha   90.00000000
_cell_angle_beta   94.55738628
_cell_angle_gamma   90.00000000
_symmetry_Int_Tables_number   1
_chemical_formula_structural   LiFePO4
_chemical_formula_sum   'Li4 Fe4 P4 O16'
_cell_volume   375.81533060
_cell_formula_units_Z   4
loop_
 _symmetry_equiv_pos_site_id
 _symmetry_equiv_pos_as_xyz
  1  'x, y, z'
loop_
 _atom_site_type_symbol
 _atom_site_label
 _atom_site_symmetry_multiplicity
 _atom_site_fract_x
 _atom_site_fract_y
 _atom_site_fract_z
 _atom_site_occupancy
  Li  Li0  1  0.38879850  0.57725450  0.96325900  1
  Li  Li1  1  0.88879850  0.92274550  0.46325900  1
  Li  Li2  1  0.88879850  0.07725450  0.96325900  1
  Li  Li3  1  0.38879850  0.42274550  0.46325900  1
  Fe  Fe4  1  0.45302500  0.79744200  0.29625800  1
  Fe  Fe5  1  0.95302500  0.70255800  0.79625800  1
  Fe  Fe6  1  0.95302500  0.29744200  0.29625800  1
  Fe  Fe7  1  0.45302500  0.20255800  0.79625800  1
  P  P8  1  0.47803650  0.84371050  0.70539600  1
  P  P9  1  0.97803650  0.65628950  0.20539600  1
  P  P10  1  0.97803650  0.34371050  0.70539600  1
  P  P11  1  0.47803650  0.15628950  0.20539600  1
  O  O12  1  0.17621250  0.85162450  0.68742200  1
  O  O13  1  0.59363550  0.80718950  0.54044000  1
  O  O14  1  0.56795100  0.71462300  0.82503300  1
  O  O15  1  0.60007300  0.99143800  0.77359100  1
  O  O16  1  0.67621250  0.64837550  0.18742200  1
  O  O17  1  0.09363550  0.69281050  0.04044000  1
  O  O18  1  0.06795100  0.78537700  0.32503300  1
  O  O19  1  0.10007300  0.50856200  0.27359100  1
  O  O20  1  0.67621250  0.35162450  0.68742200  1
  O  O21  1  0.09363550  0.30718950  0.54044000  1
  O  O22  1  0.06795100  0.21462300  0.82503300  1
  O  O23  1  0.10007300  0.49143800  0.77359100  1
  O  O24  1  0.17621250  0.14837550  0.18742200  1
  O  O25  1  0.59363550  0.19281050  0.04044000  1
  O  O26  1  0.56795100  0.28537700  0.32503300  1
  O  O27  1  0.60007300  0.00856200  0.27359100  1
