# generated using pymatgen
data_LiTiP2O7
_symmetry_space_group_name_H-M   'P 1'
_cell_length_a   6.60543600
_cell_length_b   8.31038800
_cell_length_c   4.61095755
_cell_angle_alpha   90.00000000
_cell_angle_beta   103.87745487
_cell_angle_gamma   90.00000000
_symmetry_Int_Tables_number   1
_chemical_formula_structural   LiTiP2O7
_chemical_formula_sum   'Li2 Ti2 P4 O14'
_cell_volume   245.72456354
_cell_formula_units_Z   2
loop_
 _symmetry_equiv_pos_site_id
 _symmetry_equiv_pos_as_xyz
  1  'x, y, z'
loop_
 _atom_site_type_symbol
 _atom_site_label
 _atom_site_symmetry_multiplicity
 _atom_site_fract_x
 _atom_site_fract_y
 _atom_site_fract_z
 _atom_site_occupancy
  Li  Li0  1  0.50000000  0.24720500  0.00000000  1
  Li  Li1  1  0.00000000  0.74720500  0.00000000  1
  Ti  Ti2  1  0.50000000  0.62566900  0.00000000  1
  Ti  Ti3  1  0.00000000  0.12566900  0.00000000  1
  P  P4  1  0.29338400  0.96088700  0.58972200  1
  P  P5  1  0.70661600  0.96088700  0.41027800  1
  P  P6  1  0.79338400  0.46088700  0.58972200  1
  P  P7  1  0.20661600  0.46088700  0.41027800  1
  O  O8  1  0.12814050  0.94536750  0.29272400  1
  O  O9  1  0.25310400  0.09342700  0.80180200  1
  O  O10  1  0.33422050  0.79764150  0.74325800  1
  O  O11  1  0.50000000  0.02732800  0.50000000  1
  O  O12  1  0.66577950  0.79764150  0.25674200  1
  O  O13  1  0.74689600  0.09342700  0.19819800  1
  O  O14  1  0.87185950  0.94536750  0.70727600  1
  O  O15  1  0.62814050  0.44536750  0.29272400  1
  O  O16  1  0.75310400  0.59342700  0.80180200  1
  O  O17  1  0.83422050  0.29764150  0.74325800  1
  O  O18  1  0.00000000  0.52732800  0.50000000  1
  O  O19  1  0.16577950  0.29764150  0.25674200  1
  O  O20  1  0.24689600  0.59342700  0.19819800  1
  O  O21  1  0.37185950  0.44536750  0.70727600  1
