# generated using pymatgen
data_Mn2OF2
_symmetry_space_group_name_H-M   'P 1'
_cell_length_a   9.80620200
_cell_length_b   5.49602000
_cell_length_c   14.60975679
_cell_angle_alpha   90.00000000
_cell_angle_beta   90.20855900
_cell_angle_gamma   90.00000000
_symmetry_Int_Tables_number   1
_chemical_formula_structural   Mn2OF2
_chemical_formula_sum   'Mn24 O12 F24'
_cell_volume   787.38882831
_cell_formula_units_Z   12
loop_
 _symmetry_equiv_pos_site_id
 _symmetry_equiv_pos_as_xyz
  1  'x, y, z'
loop_
 _atom_site_type_symbol
 _atom_site_label
 _atom_site_symmetry_multiplicity
 _atom_site_fract_x
 _atom_site_fract_y
 _atom_site_fract_z
 _atom_site_occupancy
  Mn  Mn0  1  0.99556800  0.98610100  0.85586400  1
  Mn  Mn1  1  0.99556800  0.01389900  0.35586400  1
  Mn  Mn2  1  0.85626500  0.47932200  0.68977500  1
  Mn  Mn3  1  0.85202550  0.49470350  0.97718300  1
  Mn  Mn4  1  0.85626500  0.52067800  0.18977500  1
  Mn  Mn5  1  0.85202550  0.50529650  0.47718300  1
  Mn  Mn6  1  0.64797450  0.99470350  0.52281700  1
  Mn  Mn7  1  0.64373500  0.97932200  0.81022500  1
  Mn  Mn8  1  0.64797450  0.00529650  0.02281700  1
  Mn  Mn9  1  0.64373500  0.02067800  0.31022500  1
  Mn  Mn10  1  0.50443200  0.48610100  0.64413600  1
  Mn  Mn11  1  0.50443200  0.51389900  0.14413600  1
  Mn  Mn12  1  0.49556800  0.48610100  0.85586400  1
  Mn  Mn13  1  0.49556800  0.51389900  0.35586400  1
  Mn  Mn14  1  0.35626500  0.97932200  0.68977500  1
  Mn  Mn15  1  0.35202550  0.99470350  0.97718300  1
  Mn  Mn16  1  0.35626500  0.02067800  0.18977500  1
  Mn  Mn17  1  0.35202550  0.00529650  0.47718300  1
  Mn  Mn18  1  0.14797450  0.49470350  0.52281700  1
  Mn  Mn19  1  0.14373500  0.47932200  0.81022500  1
  Mn  Mn20  1  0.14797450  0.50529650  0.02281700  1
  Mn  Mn21  1  0.14373500  0.52067800  0.31022500  1
  Mn  Mn22  1  0.00443200  0.98610100  0.64413600  1
  Mn  Mn23  1  0.00443200  0.01389900  0.14413600  1
  O  O24  1  0.97872900  0.64707600  0.58644200  1
  O  O25  1  0.97872900  0.35292400  0.08644200  1
  O  O26  1  0.52127100  0.14707600  0.91355800  1
  O  O27  1  0.52127100  0.85292400  0.41355800  1
  O  O28  1  0.00000000  0.25168000  0.75000000  1
  O  O29  1  0.00000000  0.74832000  0.25000000  1
  O  O30  1  0.47872900  0.14707600  0.58644200  1
  O  O31  1  0.47872900  0.85292400  0.08644200  1
  O  O32  1  0.02127100  0.64707600  0.91355800  1
  O  O33  1  0.02127100  0.35292400  0.41355800  1
  O  O34  1  0.50000000  0.75168000  0.75000000  1
  O  O35  1  0.50000000  0.24832000  0.25000000  1
  F  F36  1  0.83427950  0.82953350  0.75500700  1
  F  F37  1  0.83427950  0.17046650  0.25500700  1
  F  F38  1  0.82675200  0.18003500  0.58011200  1
  F  F39  1  0.82675200  0.81996500  0.08011200  1
  F  F40  1  0.81338050  0.13869750  0.91803300  1
  F  F41  1  0.81338050  0.86130250  0.41803300  1
  F  F42  1  0.68661950  0.63869750  0.58196700  1
  F  F43  1  0.68661950  0.36130250  0.08196700  1
  F  F44  1  0.67324800  0.68003500  0.91988800  1
  F  F45  1  0.67324800  0.31996500  0.41988800  1
  F  F46  1  0.66572050  0.32953350  0.74499300  1
  F  F47  1  0.66572050  0.67046650  0.24499300  1
  F  F48  1  0.33427950  0.32953350  0.75500700  1
  F  F49  1  0.33427950  0.67046650  0.25500700  1
  F  F50  1  0.32675200  0.68003500  0.58011200  1
  F  F51  1  0.32675200  0.31996500  0.08011200  1
  F  F52  1  0.31338050  0.63869750  0.91803300  1
  F  F53  1  0.31338050  0.36130250  0.41803300  1
  F  F54  1  0.18661950  0.13869750  0.58196700  1
  F  F55  1  0.18661950  0.86130250  0.08196700  1
  F  F56  1  0.17324800  0.18003500  0.91988800  1
  F  F57  1  0.17324800  0.81996500  0.41988800  1
  F  F58  1  0.16572050  0.82953350  0.74499300  1
  F  F59  1  0.16572050  0.17046650  0.24499300  1
