# generated using pymatgen
data_Li3Co2Si3O10
_symmetry_space_group_name_H-M   'P 1'
_cell_length_a   9.58816000
_cell_length_b   5.44381200
_cell_length_c   16.79639939
_cell_angle_alpha   90.00000000
_cell_angle_beta   95.25850323
_cell_angle_gamma   90.00000000
_symmetry_Int_Tables_number   1
_chemical_formula_structural   Li3Co2Si3O10
_chemical_formula_sum   'Li12 Co8 Si12 O40'
_cell_volume   873.01745636
_cell_formula_units_Z   4
loop_
 _symmetry_equiv_pos_site_id
 _symmetry_equiv_pos_as_xyz
  1  'x, y, z'
loop_
 _atom_site_type_symbol
 _atom_site_label
 _atom_site_symmetry_multiplicity
 _atom_site_fract_x
 _atom_site_fract_y
 _atom_site_fract_z
 _atom_site_occupancy
  Li  Li0  1  0.79717550  0.36702050  0.26208500  1
  Li  Li1  1  0.75395100  0.38864300  0.95208100  1
  Li  Li2  1  0.79717550  0.63297950  0.76208500  1
  Li  Li3  1  0.75395100  0.61135700  0.45208100  1
  Li  Li4  1  0.61753050  0.86153650  0.22548700  1
  Li  Li5  1  0.61753050  0.13846350  0.72548700  1
  Li  Li6  1  0.29717550  0.86702050  0.26208500  1
  Li  Li7  1  0.25395100  0.88864300  0.95208100  1
  Li  Li8  1  0.29717550  0.13297950  0.76208500  1
  Li  Li9  1  0.25395100  0.11135700  0.45208100  1
  Li  Li10  1  0.11753050  0.36153650  0.22548700  1
  Li  Li11  1  0.11753050  0.63846350  0.72548700  1
  Co  Co12  1  0.90589200  0.09921900  0.41918600  1
  Co  Co13  1  0.59445150  0.58552350  0.07653400  1
  Co  Co14  1  0.90589200  0.90078100  0.91918600  1
  Co  Co15  1  0.59445150  0.41447650  0.57653400  1
  Co  Co16  1  0.40589200  0.59921900  0.41918600  1
  Co  Co17  1  0.09445150  0.08552350  0.07653400  1
  Co  Co18  1  0.40589200  0.40078100  0.91918600  1
  Co  Co19  1  0.09445150  0.91447650  0.57653400  1
  Si  Si20  1  0.99819750  0.12096650  0.74960000  1
  Si  Si21  1  0.91866350  0.39758750  0.59983900  1
  Si  Si22  1  0.91866350  0.60241250  0.09983900  1
  Si  Si23  1  0.57587850  0.89797450  0.90473800  1
  Si  Si24  1  0.57587850  0.10202550  0.40473800  1
  Si  Si25  1  0.99819750  0.87903350  0.24960000  1
  Si  Si26  1  0.49819750  0.62096650  0.74960000  1
  Si  Si27  1  0.41866350  0.89758750  0.59983900  1
  Si  Si28  1  0.41866350  0.10241250  0.09983900  1
  Si  Si29  1  0.07587850  0.39797450  0.90473800  1
  Si  Si30  1  0.07587850  0.60202550  0.40473800  1
  Si  Si31  1  0.49819750  0.37903350  0.24960000  1
  O  O32  1  0.61771850  0.49165650  0.70064900  1
  O  O33  1  0.61771850  0.50834350  0.20064900  1
  O  O34  1  0.77310750  0.52892050  0.56565600  1
  O  O35  1  0.77310750  0.47107950  0.06565600  1
  O  O36  1  0.89349200  0.30942600  0.69294400  1
  O  O37  1  0.95531650  0.15479850  0.54918300  1
  O  O38  1  0.57246750  0.62893150  0.95137400  1
  O  O39  1  0.92416000  0.46667800  0.40738100  1
  O  O40  1  0.92416000  0.53332200  0.90738100  1
  O  O41  1  0.89349200  0.69057400  0.19294400  1
  O  O42  1  0.59226250  0.82477150  0.80697800  1
  O  O43  1  0.54653400  0.90132600  0.10910300  1
  O  O44  1  0.54653400  0.09867400  0.60910300  1
  O  O45  1  0.95531650  0.84520150  0.04918300  1
  O  O46  1  0.57246750  0.37106850  0.45137400  1
  O  O47  1  0.59226250  0.17522850  0.30697800  1
  O  O48  1  0.71568700  0.05175500  0.93075400  1
  O  O49  1  0.71568700  0.94824500  0.43075400  1
  O  O50  1  0.90766200  0.92692700  0.79447100  1
  O  O51  1  0.90766200  0.07307300  0.29447100  1
  O  O52  1  0.11771850  0.99165650  0.70064900  1
  O  O53  1  0.11771850  0.00834350  0.20064900  1
  O  O54  1  0.27310750  0.02892050  0.56565600  1
  O  O55  1  0.27310750  0.97107950  0.06565600  1
  O  O56  1  0.39349200  0.80942600  0.69294400  1
  O  O57  1  0.45531650  0.65479850  0.54918300  1
  O  O58  1  0.07246750  0.12893150  0.95137400  1
  O  O59  1  0.42416000  0.96667800  0.40738100  1
  O  O60  1  0.42416000  0.03332200  0.90738100  1
  O  O61  1  0.39349200  0.19057400  0.19294400  1
  O  O62  1  0.09226250  0.32477150  0.80697800  1
  O  O63  1  0.04653400  0.40132600  0.10910300  1
  O  O64  1  0.04653400  0.59867400  0.60910300  1
  O  O65  1  0.45531650  0.34520150  0.04918300  1
  O  O66  1  0.07246750  0.87106850  0.45137400  1
  O  O67  1  0.09226250  0.67522850  0.30697800  1
  O  O68  1  0.21568700  0.55175500  0.93075400  1
  O  O69  1  0.21568700  0.44824500  0.43075400  1
  O  O70  1  0.40766200  0.42692700  0.79447100  1
  O  O71  1  0.40766200  0.57307300  0.29447100  1
