# generated using pymatgen
data_Li3FeO3
_symmetry_space_group_name_H-M   'P 1'
_cell_length_a   8.90189107
_cell_length_b   8.90189107
_cell_length_c   3.62976800
_cell_angle_alpha   90.00000000
_cell_angle_beta   90.00000000
_cell_angle_gamma   90.00000000
_symmetry_Int_Tables_number   1
_chemical_formula_structural   Li3FeO3
_chemical_formula_sum   'Li12 Fe4 O12'
_cell_volume   287.63611793
_cell_formula_units_Z   4
loop_
 _symmetry_equiv_pos_site_id
 _symmetry_equiv_pos_as_xyz
  1  'x, y, z'
loop_
 _atom_site_type_symbol
 _atom_site_label
 _atom_site_symmetry_multiplicity
 _atom_site_fract_x
 _atom_site_fract_y
 _atom_site_fract_z
 _atom_site_occupancy
  Li  Li0  1  0.35922650  0.10080950  0.50000000  1
  Li  Li1  1  0.60080950  0.14077350  0.00000000  1
  Li  Li2  1  0.16809750  0.16809750  0.00000000  1
  Li  Li3  1  0.66809750  0.33190250  0.50000000  1
  Li  Li4  1  0.10080950  0.35922650  0.50000000  1
  Li  Li5  1  0.85922650  0.39919050  0.00000000  1
  Li  Li6  1  0.14077350  0.60080950  0.00000000  1
  Li  Li7  1  0.89919050  0.64077350  0.50000000  1
  Li  Li8  1  0.33190250  0.66809750  0.50000000  1
  Li  Li9  1  0.83190250  0.83190250  0.00000000  1
  Li  Li10  1  0.39919050  0.85922650  0.00000000  1
  Li  Li11  1  0.64077350  0.89919050  0.50000000  1
  Fe  Fe12  1  0.88481250  0.11518750  0.50000000  1
  Fe  Fe13  1  0.38481250  0.38481250  0.00000000  1
  Fe  Fe14  1  0.61518750  0.61518750  0.00000000  1
  Fe  Fe15  1  0.11518750  0.88481250  0.50000000  1
  O  O16  1  0.10164100  0.10164100  0.50000000  1
  O  O17  1  0.67812350  0.11184150  0.50000000  1
  O  O18  1  0.38815850  0.17812350  0.00000000  1
  O  O19  1  0.88815850  0.32187650  0.50000000  1
  O  O20  1  0.17812350  0.38815850  0.00000000  1
  O  O21  1  0.60164100  0.39835900  0.00000000  1
  O  O22  1  0.39835900  0.60164100  0.00000000  1
  O  O23  1  0.82187650  0.61184150  0.00000000  1
  O  O24  1  0.11184150  0.67812350  0.50000000  1
  O  O25  1  0.61184150  0.82187650  0.00000000  1
  O  O26  1  0.32187650  0.88815850  0.50000000  1
  O  O27  1  0.89835900  0.89835900  0.50000000  1
