# generated using pymatgen
data_Li4Ti5Co3O16
_symmetry_space_group_name_H-M   'P 1'
_cell_length_a   10.02435800
_cell_length_b   5.85515400
_cell_length_c   9.51549190
_cell_angle_alpha   90.00000000
_cell_angle_beta   90.36671266
_cell_angle_gamma   90.00000000
_symmetry_Int_Tables_number   1
_chemical_formula_structural   Li4Ti5Co3O16
_chemical_formula_sum   'Li8 Ti10 Co6 O32'
_cell_volume   558.49236305
_cell_formula_units_Z   2
loop_
 _symmetry_equiv_pos_site_id
 _symmetry_equiv_pos_as_xyz
  1  'x, y, z'
loop_
 _atom_site_type_symbol
 _atom_site_label
 _atom_site_symmetry_multiplicity
 _atom_site_fract_x
 _atom_site_fract_y
 _atom_site_fract_z
 _atom_site_occupancy
  Li  Li0  1  0.66642900  0.00000000  0.10777100  1
  Li  Li1  1  0.98863800  0.00000000  0.00807700  1
  Li  Li2  1  0.99574500  0.00000000  0.50456600  1
  Li  Li3  1  0.33492500  0.00000000  0.59810400  1
  Li  Li4  1  0.16642900  0.50000000  0.10777100  1
  Li  Li5  1  0.48863800  0.50000000  0.00807700  1
  Li  Li6  1  0.49574500  0.50000000  0.50456600  1
  Li  Li7  1  0.83492500  0.50000000  0.59810400  1
  Ti  Ti8  1  0.17529300  0.00000000  0.27345200  1
  Ti  Ti9  1  0.59355600  0.75497400  0.77888300  1
  Ti  Ti10  1  0.66658000  0.00000000  0.49649800  1
  Ti  Ti11  1  0.59355600  0.24502600  0.77888300  1
  Ti  Ti12  1  0.34585200  0.00000000  0.00581700  1
  Ti  Ti13  1  0.67529300  0.50000000  0.27345200  1
  Ti  Ti14  1  0.09355600  0.25497400  0.77888300  1
  Ti  Ti15  1  0.16658000  0.50000000  0.49649800  1
  Ti  Ti16  1  0.09355600  0.74502600  0.77888300  1
  Ti  Ti17  1  0.84585200  0.50000000  0.00581700  1
  Co  Co18  1  0.82731100  0.00000000  0.79079300  1
  Co  Co19  1  0.41368750  0.75734250  0.28805400  1
  Co  Co20  1  0.41368750  0.24265750  0.28805400  1
  Co  Co21  1  0.32731100  0.50000000  0.79079300  1
  Co  Co22  1  0.91368750  0.25734250  0.28805400  1
  Co  Co23  1  0.91368750  0.74265750  0.28805400  1
  O  O24  1  0.57952100  0.75416100  0.40257900  1
  O  O25  1  0.51600500  0.00000000  0.66492300  1
  O  O26  1  0.66084400  0.00000000  0.89848000  1
  O  O27  1  0.99692500  0.00000000  0.69512300  1
  O  O28  1  0.99621300  0.00000000  0.19650500  1
  O  O29  1  0.57952100  0.24583900  0.40257900  1
  O  O30  1  0.73249600  0.76815600  0.65080500  1
  O  O31  1  0.73249600  0.23184400  0.65080500  1
  O  O32  1  0.16688400  0.00000000  0.90416100  1
  O  O33  1  0.83162900  0.00000000  0.39913900  1
  O  O34  1  0.25898850  0.77611550  0.16283500  1
  O  O35  1  0.25898850  0.22388450  0.16283500  1
  O  O36  1  0.33365300  0.00000000  0.39315600  1
  O  O37  1  0.42022400  0.76015400  0.90889300  1
  O  O38  1  0.47847900  0.00000000  0.16988700  1
  O  O39  1  0.42022400  0.23984600  0.90889300  1
  O  O40  1  0.07952100  0.25416100  0.40257900  1
  O  O41  1  0.01600500  0.50000000  0.66492300  1
  O  O42  1  0.16084400  0.50000000  0.89848000  1
  O  O43  1  0.49692500  0.50000000  0.69512300  1
  O  O44  1  0.49621300  0.50000000  0.19650500  1
  O  O45  1  0.07952100  0.74583900  0.40257900  1
  O  O46  1  0.23249600  0.26815600  0.65080500  1
  O  O47  1  0.23249600  0.73184400  0.65080500  1
  O  O48  1  0.66688400  0.50000000  0.90416100  1
  O  O49  1  0.33162900  0.50000000  0.39913900  1
  O  O50  1  0.75898850  0.27611550  0.16283500  1
  O  O51  1  0.75898850  0.72388450  0.16283500  1
  O  O52  1  0.83365300  0.50000000  0.39315600  1
  O  O53  1  0.92022400  0.26015400  0.90889300  1
  O  O54  1  0.97847900  0.50000000  0.16988700  1
  O  O55  1  0.92022400  0.73984600  0.90889300  1
