# generated using pymatgen
data_Li4Fe3Co3(SnO8)2
_symmetry_space_group_name_H-M   'P 1'
_cell_length_a   10.27924400
_cell_length_b   5.97298200
_cell_length_c   9.79055969
_cell_angle_alpha   90.00000000
_cell_angle_beta   90.66965284
_cell_angle_gamma   90.00000000
_symmetry_Int_Tables_number   1
_chemical_formula_structural   Li4Fe3Co3(SnO8)2
_chemical_formula_sum   'Li8 Fe6 Co6 Sn4 O32'
_cell_volume   601.07717623
_cell_formula_units_Z   2
loop_
 _symmetry_equiv_pos_site_id
 _symmetry_equiv_pos_as_xyz
  1  'x, y, z'
loop_
 _atom_site_type_symbol
 _atom_site_label
 _atom_site_symmetry_multiplicity
 _atom_site_fract_x
 _atom_site_fract_y
 _atom_site_fract_z
 _atom_site_occupancy
  Li  Li0  1  0.33504600  0.00000000  0.10500900  1
  Li  Li1  1  0.99702100  0.00000000  0.00510000  1
  Li  Li2  1  0.99772500  0.00000000  0.50647400  1
  Li  Li3  1  0.66834500  0.00000000  0.60622500  1
  Li  Li4  1  0.83504600  0.50000000  0.10500900  1
  Li  Li5  1  0.49702100  0.50000000  0.00510000  1
  Li  Li6  1  0.49772500  0.50000000  0.50647400  1
  Li  Li7  1  0.16834500  0.50000000  0.60622500  1
  Fe  Fe8  1  0.16922100  0.00000000  0.78643100  1
  Fe  Fe9  1  0.58388550  0.24578650  0.28564100  1
  Fe  Fe10  1  0.58388550  0.75421350  0.28564100  1
  Fe  Fe11  1  0.66922100  0.50000000  0.78643100  1
  Fe  Fe12  1  0.08388550  0.74578650  0.28564100  1
  Fe  Fe13  1  0.08388550  0.25421350  0.28564100  1
  Co  Co14  1  0.41423200  0.24704200  0.78560200  1
  Co  Co15  1  0.41423200  0.75295800  0.78560200  1
  Co  Co16  1  0.83006800  0.00000000  0.28580200  1
  Co  Co17  1  0.91423200  0.74704200  0.78560200  1
  Co  Co18  1  0.91423200  0.25295800  0.78560200  1
  Co  Co19  1  0.33006800  0.50000000  0.28580200  1
  Sn  Sn20  1  0.33390700  0.00000000  0.51015200  1
  Sn  Sn21  1  0.66648700  0.00000000  0.00989700  1
  Sn  Sn22  1  0.83390700  0.50000000  0.51015200  1
  Sn  Sn23  1  0.16648700  0.50000000  0.00989700  1
  O  O24  1  0.41778750  0.25865850  0.39957300  1
  O  O25  1  0.48388400  0.00000000  0.66341200  1
  O  O26  1  0.33862600  0.00000000  0.89142700  1
  O  O27  1  0.99640300  0.00000000  0.69336000  1
  O  O28  1  0.99557000  0.00000000  0.19204200  1
  O  O29  1  0.41778750  0.74134150  0.39957300  1
  O  O30  1  0.26188850  0.22676950  0.66226400  1
  O  O31  1  0.26188850  0.77323050  0.66226400  1
  O  O32  1  0.83715100  0.00000000  0.89589900  1
  O  O33  1  0.16045600  0.00000000  0.40186200  1
  O  O34  1  0.74438750  0.22224250  0.16103100  1
  O  O35  1  0.74438750  0.77775750  0.16103100  1
  O  O36  1  0.67011600  0.00000000  0.39326200  1
  O  O37  1  0.57920600  0.25787200  0.89961900  1
  O  O38  1  0.51733700  0.00000000  0.15918300  1
  O  O39  1  0.57920600  0.74212800  0.89961900  1
  O  O40  1  0.91778750  0.75865850  0.39957300  1
  O  O41  1  0.98388400  0.50000000  0.66341200  1
  O  O42  1  0.83862600  0.50000000  0.89142700  1
  O  O43  1  0.49640300  0.50000000  0.69336000  1
  O  O44  1  0.49557000  0.50000000  0.19204200  1
  O  O45  1  0.91778750  0.24134150  0.39957300  1
  O  O46  1  0.76188850  0.72676950  0.66226400  1
  O  O47  1  0.76188850  0.27323050  0.66226400  1
  O  O48  1  0.33715100  0.50000000  0.89589900  1
  O  O49  1  0.66045600  0.50000000  0.40186200  1
  O  O50  1  0.24438750  0.72224250  0.16103100  1
  O  O51  1  0.24438750  0.27775750  0.16103100  1
  O  O52  1  0.17011600  0.50000000  0.39326200  1
  O  O53  1  0.07920600  0.75787200  0.89961900  1
  O  O54  1  0.01733700  0.50000000  0.15918300  1
  O  O55  1  0.07920600  0.24212800  0.89961900  1
