# generated using pymatgen
data_Li3Fe2NiO6
_symmetry_space_group_name_H-M   'P 1'
_cell_length_a   13.14037400
_cell_length_b   2.92445200
_cell_length_c   5.90171675
_cell_angle_alpha   90.00000000
_cell_angle_beta   103.34996054
_cell_angle_gamma   90.00000000
_symmetry_Int_Tables_number   1
_chemical_formula_structural   Li3Fe2NiO6
_chemical_formula_sum   'Li6 Fe4 Ni2 O12'
_cell_volume   220.66505556
_cell_formula_units_Z   2
loop_
 _symmetry_equiv_pos_site_id
 _symmetry_equiv_pos_as_xyz
  1  'x, y, z'
loop_
 _atom_site_type_symbol
 _atom_site_label
 _atom_site_symmetry_multiplicity
 _atom_site_fract_x
 _atom_site_fract_y
 _atom_site_fract_z
 _atom_site_occupancy
  Li  Li0  1  0.00000000  0.50000000  0.50000000  1
  Li  Li1  1  0.16429400  0.00000000  0.83429600  1
  Li  Li2  1  0.33570600  0.50000000  0.16570400  1
  Li  Li3  1  0.50000000  0.00000000  0.50000000  1
  Li  Li4  1  0.66429400  0.50000000  0.83429600  1
  Li  Li5  1  0.83570600  0.00000000  0.16570400  1
  Fe  Fe6  1  0.16687600  0.00000000  0.32785000  1
  Fe  Fe7  1  0.33312400  0.50000000  0.67215000  1
  Fe  Fe8  1  0.66687600  0.50000000  0.32785000  1
  Fe  Fe9  1  0.83312400  0.00000000  0.67215000  1
  Ni  Ni10  1  0.00000000  0.50000000  0.00000000  1
  Ni  Ni11  1  0.50000000  0.00000000  0.00000000  1
  O  O12  1  0.16460100  0.50000000  0.09698300  1
  O  O13  1  0.33022000  0.00000000  0.43054000  1
  O  O14  1  0.33539900  0.00000000  0.90301700  1
  O  O15  1  0.49545700  0.50000000  0.76619500  1
  O  O16  1  0.00454300  0.00000000  0.23380500  1
  O  O17  1  0.16978000  0.50000000  0.56946000  1
  O  O18  1  0.66460100  0.00000000  0.09698300  1
  O  O19  1  0.83022000  0.50000000  0.43054000  1
  O  O20  1  0.83539900  0.50000000  0.90301700  1
  O  O21  1  0.99545700  0.00000000  0.76619500  1
  O  O22  1  0.50454300  0.50000000  0.23380500  1
  O  O23  1  0.66978000  0.00000000  0.56946000  1
