# generated using pymatgen
data_Li5Nb2Co5O12
_symmetry_space_group_name_H-M   'P 1'
_cell_length_a   5.14646800
_cell_length_b   9.17329600
_cell_length_c   10.06804565
_cell_angle_alpha   90.00000000
_cell_angle_beta   101.59338485
_cell_angle_gamma   90.00000000
_symmetry_Int_Tables_number   1
_chemical_formula_structural   Li5Nb2Co5O12
_chemical_formula_sum   'Li10 Nb4 Co10 O24'
_cell_volume   465.61606180
_cell_formula_units_Z   2
loop_
 _symmetry_equiv_pos_site_id
 _symmetry_equiv_pos_as_xyz
  1  'x, y, z'
loop_
 _atom_site_type_symbol
 _atom_site_label
 _atom_site_symmetry_multiplicity
 _atom_site_fract_x
 _atom_site_fract_y
 _atom_site_fract_z
 _atom_site_occupancy
  Li  Li0  1  0.75658100  0.92863400  0.74380300  1
  Li  Li1  1  0.24865400  0.57184700  0.25844300  1
  Li  Li2  1  0.24341900  0.92863400  0.25619700  1
  Li  Li3  1  0.75134600  0.57184700  0.74155700  1
  Li  Li4  1  0.00000000  0.92449800  0.50000000  1
  Li  Li5  1  0.25658100  0.42863400  0.74380300  1
  Li  Li6  1  0.74865400  0.07184700  0.25844300  1
  Li  Li7  1  0.74341900  0.42863400  0.25619700  1
  Li  Li8  1  0.25134600  0.07184700  0.74155700  1
  Li  Li9  1  0.50000000  0.42449800  0.50000000  1
  Nb  Nb10  1  0.50000000  0.75626300  0.50000000  1
  Nb  Nb11  1  0.00000000  0.74265300  0.00000000  1
  Nb  Nb12  1  0.00000000  0.25626300  0.50000000  1
  Nb  Nb13  1  0.50000000  0.24265300  0.00000000  1
  Co  Co14  1  0.50000000  0.57557700  0.00000000  1
  Co  Co15  1  0.74812900  0.75483300  0.25065800  1
  Co  Co16  1  0.25187100  0.75483300  0.74934200  1
  Co  Co17  1  0.50000000  0.91136000  0.00000000  1
  Co  Co18  1  0.00000000  0.58630700  0.50000000  1
  Co  Co19  1  0.00000000  0.07557700  0.00000000  1
  Co  Co20  1  0.24812900  0.25483300  0.25065800  1
  Co  Co21  1  0.75187100  0.25483300  0.74934200  1
  Co  Co22  1  0.00000000  0.41136000  0.00000000  1
  Co  Co23  1  0.50000000  0.08630700  0.50000000  1
  O  O24  1  0.61854700  0.59691500  0.38168800  1
  O  O25  1  0.38145300  0.59691500  0.61831200  1
  O  O26  1  0.63020700  0.73861700  0.88031500  1
  O  O27  1  0.36979300  0.73861700  0.11968500  1
  O  O28  1  0.61358300  0.91184000  0.38065800  1
  O  O29  1  0.38641700  0.91184000  0.61934200  1
  O  O30  1  0.11921850  0.59084850  0.87671800  1
  O  O31  1  0.88078150  0.59084850  0.12328200  1
  O  O32  1  0.13458450  0.75241850  0.38126900  1
  O  O33  1  0.86541550  0.75241850  0.61873100  1
  O  O34  1  0.10568400  0.90571800  0.87825700  1
  O  O35  1  0.89431600  0.90571800  0.12174300  1
  O  O36  1  0.11854700  0.09691500  0.38168800  1
  O  O37  1  0.88145300  0.09691500  0.61831200  1
  O  O38  1  0.13020700  0.23861700  0.88031500  1
  O  O39  1  0.86979300  0.23861700  0.11968500  1
  O  O40  1  0.11358300  0.41184000  0.38065800  1
  O  O41  1  0.88641700  0.41184000  0.61934200  1
  O  O42  1  0.61921850  0.09084850  0.87671800  1
  O  O43  1  0.38078150  0.09084850  0.12328200  1
  O  O44  1  0.63458450  0.25241850  0.38126900  1
  O  O45  1  0.36541550  0.25241850  0.61873100  1
  O  O46  1  0.60568400  0.40571800  0.87825700  1
  O  O47  1  0.39431600  0.40571800  0.12174300  1
