# generated using pymatgen
data_LiCrBO3
_symmetry_space_group_name_H-M   'P 1'
_cell_length_a   8.25029880
_cell_length_b   8.25029880
_cell_length_c   3.14653900
_cell_angle_alpha   90.00000000
_cell_angle_beta   90.00000000
_cell_angle_gamma   120.00000000
_symmetry_Int_Tables_number   1
_chemical_formula_structural   LiCrBO3
_chemical_formula_sum   'Li3 Cr3 B3 O9'
_cell_volume   185.48257067
_cell_formula_units_Z   3
loop_
 _symmetry_equiv_pos_site_id
 _symmetry_equiv_pos_as_xyz
  1  'x, y, z'
loop_
 _atom_site_type_symbol
 _atom_site_label
 _atom_site_symmetry_multiplicity
 _atom_site_fract_x
 _atom_site_fract_y
 _atom_site_fract_z
 _atom_site_occupancy
  Li  Li0  1  0.35211417  0.95522083  0.00000000  1
  Li  Li1  1  0.60310667  0.64788583  0.00000000  1
  Li  Li2  1  0.04477917  0.39689333  0.00000000  1
  Cr  Cr3  1  0.95786217  0.68401033  0.50000000  1
  Cr  Cr4  1  0.31598967  0.27385183  0.50000000  1
  Cr  Cr5  1  0.72614817  0.04213783  0.50000000  1
  B  B6  1  0.00000000  0.00000000  0.00000000  1
  B  B7  1  0.33333333  0.66666667  0.50000000  1
  B  B8  1  0.66666667  0.33333333  0.00000000  1
  O  O9  1  0.07769717  0.88381883  0.00000000  1
  O  O10  1  0.80612167  0.92230283  0.00000000  1
  O  O11  1  0.11618117  0.19387833  0.00000000  1
  O  O12  1  0.41436867  0.86124733  0.50000000  1
  O  O13  1  0.13875267  0.55312133  0.50000000  1
  O  O14  1  0.44687867  0.58563133  0.50000000  1
  O  O15  1  0.75254217  0.22545533  0.00000000  1
  O  O16  1  0.47291317  0.24745783  0.00000000  1
  O  O17  1  0.77454467  0.52708683  0.00000000  1
