# generated using pymatgen
data_MnO2
_symmetry_space_group_name_H-M   'P 1'
_cell_length_a   5.78729625
_cell_length_b   5.78729625
_cell_length_c   8.87613124
_cell_angle_alpha   90.00000000
_cell_angle_beta   90.00000000
_cell_angle_gamma   120.00000000
_symmetry_Int_Tables_number   1
_chemical_formula_structural   MnO2
_chemical_formula_sum   'Mn8 O16'
_cell_volume   257.45763470
_cell_formula_units_Z   8
loop_
 _symmetry_equiv_pos_site_id
 _symmetry_equiv_pos_as_xyz
  1  'x, y, z'
loop_
 _atom_site_type_symbol
 _atom_site_label
 _atom_site_symmetry_multiplicity
 _atom_site_fract_x
 _atom_site_fract_y
 _atom_site_fract_z
 _atom_site_occupancy
  Mn  Mn0  1  0.16705300  0.83294700  0.21093300  1
  Mn  Mn1  1  0.33333333  0.66666667  0.48707600  1
  Mn  Mn2  1  0.16705300  0.33410600  0.21093300  1
  Mn  Mn3  1  0.66589400  0.83294700  0.21093300  1
  Mn  Mn4  1  0.33410600  0.16705300  0.71093300  1
  Mn  Mn5  1  0.66666667  0.33333333  0.98707600  1
  Mn  Mn6  1  0.83294700  0.66589400  0.71093300  1
  Mn  Mn7  1  0.83294700  0.16705300  0.71093300  1
  O  O8  1  0.16590650  0.83409350  0.60136500  1
  O  O9  1  0.04514200  0.52257100  0.34056800  1
  O  O10  1  0.33333333  0.66666667  0.10263400  1
  O  O11  1  0.00000000  0.00000000  0.31635900  1
  O  O12  1  0.00000000  0.00000000  0.81635900  1
  O  O13  1  0.16590650  0.33181300  0.60136500  1
  O  O14  1  0.47742900  0.95485800  0.34056800  1
  O  O15  1  0.47742900  0.52257100  0.34056800  1
  O  O16  1  0.33181300  0.16590650  0.10136500  1
  O  O17  1  0.66818700  0.83409350  0.60136500  1
  O  O18  1  0.52257100  0.47742900  0.84056800  1
  O  O19  1  0.52257100  0.04514200  0.84056800  1
  O  O20  1  0.66666667  0.33333333  0.60263400  1
  O  O21  1  0.83409350  0.66818700  0.10136500  1
  O  O22  1  0.95485800  0.47742900  0.84056800  1
  O  O23  1  0.83409350  0.16590650  0.10136500  1
