# generated using pymatgen
data_Li2Mn2F7
_symmetry_space_group_name_H-M   'P 1'
_cell_length_a   6.36789000
_cell_length_b   8.79061000
_cell_length_c   9.82232836
_cell_angle_alpha   90.00000000
_cell_angle_beta   100.05150387
_cell_angle_gamma   90.00000000
_symmetry_Int_Tables_number   1
_chemical_formula_structural   Li2Mn2F7
_chemical_formula_sum   'Li8 Mn8 F28'
_cell_volume   541.39152769
_cell_formula_units_Z   4
loop_
 _symmetry_equiv_pos_site_id
 _symmetry_equiv_pos_as_xyz
  1  'x, y, z'
loop_
 _atom_site_type_symbol
 _atom_site_label
 _atom_site_symmetry_multiplicity
 _atom_site_fract_x
 _atom_site_fract_y
 _atom_site_fract_z
 _atom_site_occupancy
  Li  Li0  1  0.21851400  0.96892000  0.70699000  1
  Li  Li1  1  0.21851400  0.03108000  0.20699000  1
  Li  Li2  1  0.78148600  0.96892000  0.79301000  1
  Li  Li3  1  0.78148600  0.03108000  0.29301000  1
  Li  Li4  1  0.71851400  0.46892000  0.70699000  1
  Li  Li5  1  0.71851400  0.53108000  0.20699000  1
  Li  Li6  1  0.28148600  0.46892000  0.79301000  1
  Li  Li7  1  0.28148600  0.53108000  0.29301000  1
  Mn  Mn8  1  0.50345550  0.79952450  0.03583300  1
  Mn  Mn9  1  0.49654450  0.79952450  0.46416700  1
  Mn  Mn10  1  0.50345550  0.20047550  0.53583300  1
  Mn  Mn11  1  0.49654450  0.20047550  0.96416700  1
  Mn  Mn12  1  0.00345550  0.29952450  0.03583300  1
  Mn  Mn13  1  0.99654450  0.29952450  0.46416700  1
  Mn  Mn14  1  0.00345550  0.70047550  0.53583300  1
  Mn  Mn15  1  0.99654450  0.70047550  0.96416700  1
  F  F16  1  0.19035300  0.14447300  0.57147200  1
  F  F17  1  0.30948350  0.80469750  0.61351300  1
  F  F18  1  0.38533650  0.01546450  0.87387600  1
  F  F19  1  0.19035300  0.85552700  0.07147200  1
  F  F20  1  0.50000000  0.33574100  0.75000000  1
  F  F21  1  0.30948350  0.19530250  0.11351300  1
  F  F22  1  0.38533650  0.98453550  0.37387600  1
  F  F23  1  0.61466350  0.01546450  0.62612400  1
  F  F24  1  0.69051650  0.80469750  0.88648700  1
  F  F25  1  0.50000000  0.66425900  0.25000000  1
  F  F26  1  0.80964700  0.14447300  0.92852800  1
  F  F27  1  0.61466350  0.98453550  0.12612400  1
  F  F28  1  0.69051650  0.19530250  0.38648700  1
  F  F29  1  0.80964700  0.85552700  0.42852800  1
  F  F30  1  0.69035300  0.64447300  0.57147200  1
  F  F31  1  0.80948350  0.30469750  0.61351300  1
  F  F32  1  0.88533650  0.51546450  0.87387600  1
  F  F33  1  0.69035300  0.35552700  0.07147200  1
  F  F34  1  0.00000000  0.83574100  0.75000000  1
  F  F35  1  0.80948350  0.69530250  0.11351300  1
  F  F36  1  0.88533650  0.48453550  0.37387600  1
  F  F37  1  0.11466350  0.51546450  0.62612400  1
  F  F38  1  0.19051650  0.30469750  0.88648700  1
  F  F39  1  0.00000000  0.16425900  0.25000000  1
  F  F40  1  0.30964700  0.64447300  0.92852800  1
  F  F41  1  0.11466350  0.48453550  0.12612400  1
  F  F42  1  0.19051650  0.69530250  0.38648700  1
  F  F43  1  0.30964700  0.35552700  0.42852800  1
