# generated using pymatgen
data_Na2Fe2C4SO16
_symmetry_space_group_name_H-M   'P 1'
_cell_length_a   13.88294400
_cell_length_b   14.02482200
_cell_length_c   14.04985000
_cell_angle_alpha   90.00000000
_cell_angle_beta   90.00000000
_cell_angle_gamma   90.00000000
_symmetry_Int_Tables_number   1
_chemical_formula_structural   Na2Fe2C4SO16
_chemical_formula_sum   'Na16 Fe16 C32 S8 O128'
_cell_volume   2735.58754315
_cell_formula_units_Z   8
loop_
 _symmetry_equiv_pos_site_id
 _symmetry_equiv_pos_as_xyz
  1  'x, y, z'
loop_
 _atom_site_type_symbol
 _atom_site_label
 _atom_site_symmetry_multiplicity
 _atom_site_fract_x
 _atom_site_fract_y
 _atom_site_fract_z
 _atom_site_occupancy
  Na  Na0  1  0.75000000  0.46083200  0.25000000  1
  Na  Na1  1  0.75000000  0.03916800  0.25000000  1
  Na  Na2  1  0.00000000  0.21083200  0.50000000  1
  Na  Na3  1  0.00000000  0.78916800  0.50000000  1
  Na  Na4  1  0.75000000  0.96083200  0.75000000  1
  Na  Na5  1  0.75000000  0.53916800  0.75000000  1
  Na  Na6  1  0.00000000  0.71083200  0.00000000  1
  Na  Na7  1  0.00000000  0.28916800  0.00000000  1
  Na  Na8  1  0.25000000  0.46083200  0.75000000  1
  Na  Na9  1  0.25000000  0.03916800  0.75000000  1
  Na  Na10  1  0.50000000  0.21083200  0.00000000  1
  Na  Na11  1  0.50000000  0.78916800  0.00000000  1
  Na  Na12  1  0.25000000  0.96083200  0.25000000  1
  Na  Na13  1  0.25000000  0.53916800  0.25000000  1
  Na  Na14  1  0.50000000  0.71083200  0.50000000  1
  Na  Na15  1  0.50000000  0.28916800  0.50000000  1
  Fe  Fe16  1  0.87500000  0.62500000  0.37500000  1
  Fe  Fe17  1  0.62500000  0.87500000  0.37500000  1
  Fe  Fe18  1  0.87500000  0.87500000  0.12500000  1
  Fe  Fe19  1  0.62500000  0.62500000  0.12500000  1
  Fe  Fe20  1  0.87500000  0.12500000  0.87500000  1
  Fe  Fe21  1  0.62500000  0.37500000  0.87500000  1
  Fe  Fe22  1  0.87500000  0.37500000  0.62500000  1
  Fe  Fe23  1  0.62500000  0.12500000  0.62500000  1
  Fe  Fe24  1  0.37500000  0.62500000  0.87500000  1
  Fe  Fe25  1  0.12500000  0.87500000  0.87500000  1
  Fe  Fe26  1  0.37500000  0.87500000  0.62500000  1
  Fe  Fe27  1  0.12500000  0.62500000  0.62500000  1
  Fe  Fe28  1  0.37500000  0.12500000  0.37500000  1
  Fe  Fe29  1  0.12500000  0.37500000  0.37500000  1
  Fe  Fe30  1  0.37500000  0.37500000  0.12500000  1
  Fe  Fe31  1  0.12500000  0.12500000  0.12500000  1
  C  C32  1  0.16092400  0.16203050  0.33525050  1
  C  C33  1  0.83907600  0.83796950  0.33525050  1
  C  C34  1  0.66092400  0.83796950  0.16474950  1
  C  C35  1  0.33907600  0.16203050  0.16474950  1
  C  C36  1  0.91092400  0.08796950  0.08525050  1
  C  C37  1  0.58907600  0.41203050  0.08525050  1
  C  C38  1  0.91092400  0.41203050  0.41474950  1
  C  C39  1  0.58907600  0.08796950  0.41474950  1
  C  C40  1  0.16092400  0.66203050  0.83525050  1
  C  C41  1  0.83907600  0.33796950  0.83525050  1
  C  C42  1  0.66092400  0.33796950  0.66474950  1
  C  C43  1  0.33907600  0.66203050  0.66474950  1
  C  C44  1  0.91092400  0.58796950  0.58525050  1
  C  C45  1  0.58907600  0.91203050  0.58525050  1
  C  C46  1  0.91092400  0.91203050  0.91474950  1
  C  C47  1  0.58907600  0.58796950  0.91474950  1
  C  C48  1  0.66092400  0.16203050  0.83525050  1
  C  C49  1  0.33907600  0.83796950  0.83525050  1
  C  C50  1  0.16092400  0.83796950  0.66474950  1
  C  C51  1  0.83907600  0.16203050  0.66474950  1
  C  C52  1  0.41092400  0.08796950  0.58525050  1
  C  C53  1  0.08907600  0.41203050  0.58525050  1
  C  C54  1  0.41092400  0.41203050  0.91474950  1
  C  C55  1  0.08907600  0.08796950  0.91474950  1
  C  C56  1  0.66092400  0.66203050  0.33525050  1
  C  C57  1  0.33907600  0.33796950  0.33525050  1
  C  C58  1  0.16092400  0.33796950  0.16474950  1
  C  C59  1  0.83907600  0.66203050  0.16474950  1
  C  C60  1  0.41092400  0.58796950  0.08525050  1
  C  C61  1  0.08907600  0.91203050  0.08525050  1
  C  C62  1  0.41092400  0.91203050  0.41474950  1
  C  C63  1  0.08907600  0.58796950  0.41474950  1
  S  S64  1  0.75000000  0.25000000  0.25000000  1
  S  S65  1  0.50000000  0.00000000  0.00000000  1
  S  S66  1  0.75000000  0.75000000  0.75000000  1
  S  S67  1  0.50000000  0.50000000  0.50000000  1
  S  S68  1  0.25000000  0.25000000  0.75000000  1
  S  S69  1  0.00000000  0.00000000  0.50000000  1
  S  S70  1  0.25000000  0.75000000  0.25000000  1
  S  S71  1  0.00000000  0.50000000  0.00000000  1
  O  O72  1  0.23344700  0.10496850  0.34717950  1
  O  O73  1  0.10406900  0.14963050  0.26373750  1
  O  O74  1  0.76655300  0.89503150  0.34717950  1
  O  O75  1  0.89593100  0.85036950  0.26373750  1
  O  O76  1  0.39378050  0.97945400  0.35423750  1
  O  O77  1  0.60406900  0.85036950  0.23626250  1
  O  O78  1  0.60621950  0.02054600  0.35423750  1
  O  O79  1  0.64378050  0.77054600  0.10423750  1
  O  O80  1  0.73344700  0.89503150  0.15282050  1
  O  O81  1  0.81186150  0.18931750  0.31170200  1
  O  O82  1  0.89378050  0.02054600  0.14576250  1
  O  O83  1  0.43813850  0.93931750  0.06170200  1
  O  O84  1  0.39593100  0.14963050  0.23626250  1
  O  O85  1  0.26655300  0.10496850  0.15282050  1
  O  O86  1  0.68813850  0.31068250  0.31170200  1
  O  O87  1  0.68813850  0.18931750  0.18829800  1
  O  O88  1  0.56186150  0.06068250  0.06170200  1
  O  O89  1  0.06186150  0.93931750  0.43829800  1
  O  O90  1  0.48344700  0.64503150  0.09717950  1
  O  O91  1  0.85406900  0.10036950  0.01373750  1
  O  O92  1  0.81186150  0.31068250  0.18829800  1
  O  O93  1  0.35621950  0.22945400  0.10423750  1
  O  O94  1  0.93813850  0.06068250  0.43829800  1
  O  O95  1  0.51655300  0.35496850  0.09717950  1
  O  O96  1  0.10621950  0.97945400  0.14576250  1
  O  O97  1  0.14378050  0.22945400  0.39576250  1
  O  O98  1  0.14593100  0.89963050  0.01373750  1
  O  O99  1  0.85621950  0.77054600  0.39576250  1
  O  O100  1  0.35406900  0.89963050  0.48626250  1
  O  O101  1  0.98344700  0.35496850  0.40282050  1
  O  O102  1  0.64593100  0.10036950  0.48626250  1
  O  O103  1  0.01655300  0.64503150  0.40282050  1
  O  O104  1  0.23344700  0.60496850  0.84717950  1
  O  O105  1  0.10406900  0.64963050  0.76373750  1
  O  O106  1  0.76655300  0.39503150  0.84717950  1
  O  O107  1  0.89593100  0.35036950  0.76373750  1
  O  O108  1  0.39378050  0.47945400  0.85423750  1
  O  O109  1  0.60406900  0.35036950  0.73626250  1
  O  O110  1  0.60621950  0.52054600  0.85423750  1
  O  O111  1  0.64378050  0.27054600  0.60423750  1
  O  O112  1  0.73344700  0.39503150  0.65282050  1
  O  O113  1  0.81186150  0.68931750  0.81170200  1
  O  O114  1  0.89378050  0.52054600  0.64576250  1
  O  O115  1  0.43813850  0.43931750  0.56170200  1
  O  O116  1  0.39593100  0.64963050  0.73626250  1
  O  O117  1  0.26655300  0.60496850  0.65282050  1
  O  O118  1  0.68813850  0.81068250  0.81170200  1
  O  O119  1  0.68813850  0.68931750  0.68829800  1
  O  O120  1  0.56186150  0.56068250  0.56170200  1
  O  O121  1  0.06186150  0.43931750  0.93829800  1
  O  O122  1  0.48344700  0.14503150  0.59717950  1
  O  O123  1  0.85406900  0.60036950  0.51373750  1
  O  O124  1  0.81186150  0.81068250  0.68829800  1
  O  O125  1  0.35621950  0.72945400  0.60423750  1
  O  O126  1  0.93813850  0.56068250  0.93829800  1
  O  O127  1  0.51655300  0.85496850  0.59717950  1
  O  O128  1  0.10621950  0.47945400  0.64576250  1
  O  O129  1  0.14378050  0.72945400  0.89576250  1
  O  O130  1  0.14593100  0.39963050  0.51373750  1
  O  O131  1  0.85621950  0.27054600  0.89576250  1
  O  O132  1  0.35406900  0.39963050  0.98626250  1
  O  O133  1  0.98344700  0.85496850  0.90282050  1
  O  O134  1  0.64593100  0.60036950  0.98626250  1
  O  O135  1  0.01655300  0.14503150  0.90282050  1
  O  O136  1  0.73344700  0.10496850  0.84717950  1
  O  O137  1  0.60406900  0.14963050  0.76373750  1
  O  O138  1  0.26655300  0.89503150  0.84717950  1
  O  O139  1  0.39593100  0.85036950  0.76373750  1
  O  O140  1  0.89378050  0.97945400  0.85423750  1
  O  O141  1  0.10406900  0.85036950  0.73626250  1
  O  O142  1  0.10621950  0.02054600  0.85423750  1
  O  O143  1  0.14378050  0.77054600  0.60423750  1
  O  O144  1  0.23344700  0.89503150  0.65282050  1
  O  O145  1  0.31186150  0.18931750  0.81170200  1
  O  O146  1  0.39378050  0.02054600  0.64576250  1
  O  O147  1  0.93813850  0.93931750  0.56170200  1
  O  O148  1  0.89593100  0.14963050  0.73626250  1
  O  O149  1  0.76655300  0.10496850  0.65282050  1
  O  O150  1  0.18813850  0.31068250  0.81170200  1
  O  O151  1  0.18813850  0.18931750  0.68829800  1
  O  O152  1  0.06186150  0.06068250  0.56170200  1
  O  O153  1  0.56186150  0.93931750  0.93829800  1
  O  O154  1  0.98344700  0.64503150  0.59717950  1
  O  O155  1  0.35406900  0.10036950  0.51373750  1
  O  O156  1  0.31186150  0.31068250  0.68829800  1
  O  O157  1  0.85621950  0.22945400  0.60423750  1
  O  O158  1  0.43813850  0.06068250  0.93829800  1
  O  O159  1  0.01655300  0.35496850  0.59717950  1
  O  O160  1  0.60621950  0.97945400  0.64576250  1
  O  O161  1  0.64378050  0.22945400  0.89576250  1
  O  O162  1  0.64593100  0.89963050  0.51373750  1
  O  O163  1  0.35621950  0.77054600  0.89576250  1
  O  O164  1  0.85406900  0.89963050  0.98626250  1
  O  O165  1  0.48344700  0.35496850  0.90282050  1
  O  O166  1  0.14593100  0.10036950  0.98626250  1
  O  O167  1  0.51655300  0.64503150  0.90282050  1
  O  O168  1  0.73344700  0.60496850  0.34717950  1
  O  O169  1  0.60406900  0.64963050  0.26373750  1
  O  O170  1  0.26655300  0.39503150  0.34717950  1
  O  O171  1  0.39593100  0.35036950  0.26373750  1
  O  O172  1  0.89378050  0.47945400  0.35423750  1
  O  O173  1  0.10406900  0.35036950  0.23626250  1
  O  O174  1  0.10621950  0.52054600  0.35423750  1
  O  O175  1  0.14378050  0.27054600  0.10423750  1
  O  O176  1  0.23344700  0.39503150  0.15282050  1
  O  O177  1  0.31186150  0.68931750  0.31170200  1
  O  O178  1  0.39378050  0.52054600  0.14576250  1
  O  O179  1  0.93813850  0.43931750  0.06170200  1
  O  O180  1  0.89593100  0.64963050  0.23626250  1
  O  O181  1  0.76655300  0.60496850  0.15282050  1
  O  O182  1  0.18813850  0.81068250  0.31170200  1
  O  O183  1  0.18813850  0.68931750  0.18829800  1
  O  O184  1  0.06186150  0.56068250  0.06170200  1
  O  O185  1  0.56186150  0.43931750  0.43829800  1
  O  O186  1  0.98344700  0.14503150  0.09717950  1
  O  O187  1  0.35406900  0.60036950  0.01373750  1
  O  O188  1  0.31186150  0.81068250  0.18829800  1
  O  O189  1  0.85621950  0.72945400  0.10423750  1
  O  O190  1  0.43813850  0.56068250  0.43829800  1
  O  O191  1  0.01655300  0.85496850  0.09717950  1
  O  O192  1  0.60621950  0.47945400  0.14576250  1
  O  O193  1  0.64378050  0.72945400  0.39576250  1
  O  O194  1  0.64593100  0.39963050  0.01373750  1
  O  O195  1  0.35621950  0.27054600  0.39576250  1
  O  O196  1  0.85406900  0.39963050  0.48626250  1
  O  O197  1  0.48344700  0.85496850  0.40282050  1
  O  O198  1  0.14593100  0.60036950  0.48626250  1
  O  O199  1  0.51655300  0.14503150  0.40282050  1
