# generated using pymatgen
data_Li2VFe3O8
_symmetry_space_group_name_H-M   'P 1'
_cell_length_a   6.00843994
_cell_length_b   6.00843994
_cell_length_c   14.62057541
_cell_angle_alpha   90.00000000
_cell_angle_beta   90.00000000
_cell_angle_gamma   120.00000000
_symmetry_Int_Tables_number   1
_chemical_formula_structural   Li2VFe3O8
_chemical_formula_sum   'Li6 V3 Fe9 O24'
_cell_volume   457.10770927
_cell_formula_units_Z   3
loop_
 _symmetry_equiv_pos_site_id
 _symmetry_equiv_pos_as_xyz
  1  'x, y, z'
loop_
 _atom_site_type_symbol
 _atom_site_label
 _atom_site_symmetry_multiplicity
 _atom_site_fract_x
 _atom_site_fract_y
 _atom_site_fract_z
 _atom_site_occupancy
  Li  Li0  1  0.33333333  0.66666667  0.79642767  1
  Li  Li1  1  0.33333333  0.66666667  0.53690567  1
  Li  Li2  1  0.00000000  0.00000000  0.12976100  1
  Li  Li3  1  0.00000000  0.00000000  0.87023900  1
  Li  Li4  1  0.66666667  0.33333333  0.46309433  1
  Li  Li5  1  0.66666667  0.33333333  0.20357233  1
  V  V6  1  0.33333333  0.66666667  0.16666667  1
  V  V7  1  1.00000000  1.00000000  0.50000000  1
  V  V8  1  0.66666667  0.33333333  0.83333333  1
  Fe  Fe9  1  0.50000000  0.50000000  0.00000000  1
  Fe  Fe10  1  0.00000000  0.50000000  0.00000000  1
  Fe  Fe11  1  0.16666667  0.33333333  0.33333333  1
  Fe  Fe12  1  0.16666667  0.83333333  0.33333333  1
  Fe  Fe13  1  0.66666667  0.83333333  0.33333333  1
  Fe  Fe14  1  0.83333333  0.66666667  0.66666667  1
  Fe  Fe15  1  0.83333333  0.16666667  0.66666667  1
  Fe  Fe16  1  0.33333333  0.16666667  0.66666667  1
  Fe  Fe17  1  0.50000000  0.00000000  0.00000000  1
  O  O18  1  0.33333333  0.66666667  0.93113867  1
  O  O19  1  0.18590000  0.37180000  0.08644600  1
  O  O20  1  0.62820000  0.81410000  0.08644600  1
  O  O21  1  0.18590000  0.81410000  0.08644600  1
  O  O22  1  0.48076667  0.51923333  0.24688733  1
  O  O23  1  0.03846667  0.51923333  0.24688733  1
  O  O24  1  0.48076667  0.96153333  0.24688733  1
  O  O25  1  0.33333333  0.66666667  0.40219467  1
  O  O26  1  0.00000000  0.00000000  0.26447200  1
  O  O27  1  0.85256667  0.70513333  0.41977933  1
  O  O28  1  0.29486667  0.14743333  0.41977933  1
  O  O29  1  0.85256667  0.14743333  0.41977933  1
  O  O30  1  0.14743333  0.85256667  0.58022067  1
  O  O31  1  0.70513333  0.85256667  0.58022067  1
  O  O32  1  0.14743333  0.29486667  0.58022067  1
  O  O33  1  0.00000000  0.00000000  0.73552800  1
  O  O34  1  0.66666667  0.33333333  0.59780533  1
  O  O35  1  0.51923333  0.03846667  0.75311267  1
  O  O36  1  0.96153333  0.48076667  0.75311267  1
  O  O37  1  0.51923333  0.48076667  0.75311267  1
  O  O38  1  0.81410000  0.18590000  0.91355400  1
  O  O39  1  0.37180000  0.18590000  0.91355400  1
  O  O40  1  0.81410000  0.62820000  0.91355400  1
  O  O41  1  0.66666667  0.33333333  0.06886133  1
