# generated using pymatgen
data_H4WNCl6
_symmetry_space_group_name_H-M   'P 1'
_cell_length_a   12.05667200
_cell_length_b   6.24565800
_cell_length_c   12.19932809
_cell_angle_alpha   90.00000000
_cell_angle_beta   100.97718563
_cell_angle_gamma   90.00000000
_symmetry_Int_Tables_number   1
_chemical_formula_structural   H4WNCl6
_chemical_formula_sum   'H16 W4 N4 Cl24'
_cell_volume   901.82384038
_cell_formula_units_Z   4
loop_
 _symmetry_equiv_pos_site_id
 _symmetry_equiv_pos_as_xyz
  1  'x, y, z'
loop_
 _atom_site_type_symbol
 _atom_site_label
 _atom_site_symmetry_multiplicity
 _atom_site_fract_x
 _atom_site_fract_y
 _atom_site_fract_z
 _atom_site_occupancy
  H  H0  1  0.99133450  0.00415850  0.67964700  1
  H  H1  1  0.92914150  0.81358050  0.74554600  1
  H  H2  1  0.99133450  0.99584150  0.17964700  1
  H  H3  1  0.92914150  0.18641950  0.24554600  1
  H  H4  1  0.57085850  0.31358050  0.75445400  1
  H  H5  1  0.50866550  0.50415850  0.82035300  1
  H  H6  1  0.57085850  0.68641950  0.25445400  1
  H  H7  1  0.50866550  0.49584150  0.32035300  1
  H  H8  1  0.49133450  0.50415850  0.67964700  1
  H  H9  1  0.42914150  0.31358050  0.74554600  1
  H  H10  1  0.49133450  0.49584150  0.17964700  1
  H  H11  1  0.42914150  0.68641950  0.24554600  1
  H  H12  1  0.07085850  0.81358050  0.75445400  1
  H  H13  1  0.00866550  0.00415850  0.82035300  1
  H  H14  1  0.07085850  0.18641950  0.25445400  1
  H  H15  1  0.00866550  0.99584150  0.32035300  1
  W  W16  1  0.75000000  0.75000000  0.00000000  1
  W  W17  1  0.75000000  0.25000000  0.50000000  1
  W  W18  1  0.25000000  0.25000000  0.00000000  1
  W  W19  1  0.25000000  0.75000000  0.50000000  1
  N  N20  1  0.00000000  0.90809800  0.75000000  1
  N  N21  1  0.00000000  0.09190200  0.25000000  1
  N  N22  1  0.50000000  0.40809800  0.75000000  1
  N  N23  1  0.50000000  0.59190200  0.25000000  1
  Cl  Cl24  1  0.91718300  0.39473100  0.60308400  1
  Cl  Cl25  1  0.91718300  0.60526900  0.10308400  1
  Cl  Cl26  1  0.85003750  0.05829250  0.96562500  1
  Cl  Cl27  1  0.78799300  0.59104000  0.83645000  1
  Cl  Cl28  1  0.71200700  0.09104000  0.66355000  1
  Cl  Cl29  1  0.85003750  0.94170750  0.46562500  1
  Cl  Cl30  1  0.64996250  0.55829250  0.53437500  1
  Cl  Cl31  1  0.78799300  0.40896000  0.33645000  1
  Cl  Cl32  1  0.71200700  0.90896000  0.16355000  1
  Cl  Cl33  1  0.64996250  0.44170750  0.03437500  1
  Cl  Cl34  1  0.58281700  0.89473100  0.89691600  1
  Cl  Cl35  1  0.58281700  0.10526900  0.39691600  1
  Cl  Cl36  1  0.41718300  0.89473100  0.60308400  1
  Cl  Cl37  1  0.41718300  0.10526900  0.10308400  1
  Cl  Cl38  1  0.35003750  0.55829250  0.96562500  1
  Cl  Cl39  1  0.28799300  0.09104000  0.83645000  1
  Cl  Cl40  1  0.21200700  0.59104000  0.66355000  1
  Cl  Cl41  1  0.35003750  0.44170750  0.46562500  1
  Cl  Cl42  1  0.14996250  0.05829250  0.53437500  1
  Cl  Cl43  1  0.28799300  0.90896000  0.33645000  1
  Cl  Cl44  1  0.21200700  0.40896000  0.16355000  1
  Cl  Cl45  1  0.14996250  0.94170750  0.03437500  1
  Cl  Cl46  1  0.08281700  0.39473100  0.89691600  1
  Cl  Cl47  1  0.08281700  0.60526900  0.39691600  1
