# generated using pymatgen
data_Li3NbV4O8
_symmetry_space_group_name_H-M   'P 1'
_cell_length_a   10.48371600
_cell_length_b   6.14767800
_cell_length_c   6.10354974
_cell_angle_alpha   90.00000000
_cell_angle_beta   124.88122195
_cell_angle_gamma   90.00000000
_symmetry_Int_Tables_number   1
_chemical_formula_structural   Li3NbV4O8
_chemical_formula_sum   'Li6 Nb2 V8 O16'
_cell_volume   322.70254452
_cell_formula_units_Z   2
loop_
 _symmetry_equiv_pos_site_id
 _symmetry_equiv_pos_as_xyz
  1  'x, y, z'
loop_
 _atom_site_type_symbol
 _atom_site_label
 _atom_site_symmetry_multiplicity
 _atom_site_fract_x
 _atom_site_fract_y
 _atom_site_fract_z
 _atom_site_occupancy
  Li  Li0  1  0.75000000  0.75000000  0.50000000  1
  Li  Li1  1  0.25000000  0.75000000  0.50000000  1
  Li  Li2  1  0.00000000  0.00000000  0.50000000  1
  Li  Li3  1  0.25000000  0.25000000  0.50000000  1
  Li  Li4  1  0.75000000  0.25000000  0.50000000  1
  Li  Li5  1  0.50000000  0.50000000  0.50000000  1
  Nb  Nb6  1  0.00000000  0.50000000  0.00000000  1
  Nb  Nb7  1  0.50000000  0.00000000  0.00000000  1
  V  V8  1  0.00000000  0.00000000  0.00000000  1
  V  V9  1  0.25000000  0.75000000  0.00000000  1
  V  V10  1  0.75000000  0.75000000  0.00000000  1
  V  V11  1  0.00000000  0.50000000  0.50000000  1
  V  V12  1  0.50000000  0.50000000  0.00000000  1
  V  V13  1  0.75000000  0.25000000  0.00000000  1
  V  V14  1  0.25000000  0.25000000  0.00000000  1
  V  V15  1  0.50000000  0.00000000  0.50000000  1
  O  O16  1  0.76180800  0.50000000  0.76471900  1
  O  O17  1  0.99945100  0.25808700  0.75753600  1
  O  O18  1  0.99945100  0.74191300  0.75753600  1
  O  O19  1  0.23819200  0.50000000  0.23528100  1
  O  O20  1  0.24974700  0.50000000  0.75556000  1
  O  O21  1  0.00054900  0.74191300  0.24246400  1
  O  O22  1  0.00054900  0.25808700  0.24246400  1
  O  O23  1  0.75025300  0.50000000  0.24444000  1
  O  O24  1  0.26180800  0.00000000  0.76471900  1
  O  O25  1  0.49945100  0.75808700  0.75753600  1
  O  O26  1  0.49945100  0.24191300  0.75753600  1
  O  O27  1  0.73819200  0.00000000  0.23528100  1
  O  O28  1  0.74974700  0.00000000  0.75556000  1
  O  O29  1  0.50054900  0.24191300  0.24246400  1
  O  O30  1  0.50054900  0.75808700  0.24246400  1
  O  O31  1  0.25025300  0.00000000  0.24444000  1
