# generated using pymatgen
data_LiFeSiO4
_symmetry_space_group_name_H-M   'P 1'
_cell_length_a   5.08473200
_cell_length_b   5.21301500
_cell_length_c   8.41494622
_cell_angle_alpha   90.00000000
_cell_angle_beta   126.87395978
_cell_angle_gamma   90.00000000
_symmetry_Int_Tables_number   1
_chemical_formula_structural   LiFeSiO4
_chemical_formula_sum   'Li2 Fe2 Si2 O8'
_cell_volume   178.43304193
_cell_formula_units_Z   2
loop_
 _symmetry_equiv_pos_site_id
 _symmetry_equiv_pos_as_xyz
  1  'x, y, z'
loop_
 _atom_site_type_symbol
 _atom_site_label
 _atom_site_symmetry_multiplicity
 _atom_site_fract_x
 _atom_site_fract_y
 _atom_site_fract_z
 _atom_site_occupancy
  Li  Li0  1  0.49167500  0.31891200  0.00295900  1
  Li  Li1  1  0.49167500  0.68108800  0.50295900  1
  Fe  Fe2  1  0.99040900  0.67788500  0.00494300  1
  Fe  Fe3  1  0.99040900  0.32211500  0.50494300  1
  Si  Si4  1  0.23852400  0.18537700  0.25278500  1
  Si  Si5  1  0.23852400  0.81462300  0.75278500  1
  O  O6  1  0.15804500  0.33600700  0.05587400  1
  O  O7  1  0.28542700  0.87626500  0.23940600  1
  O  O8  1  0.93017100  0.23832200  0.26431500  1
  O  O9  1  0.57066000  0.31660400  0.44991200  1
  O  O10  1  0.15804500  0.66399300  0.55587400  1
  O  O11  1  0.28542700  0.12373500  0.73940600  1
  O  O12  1  0.93017100  0.76167800  0.76431500  1
  O  O13  1  0.57066000  0.68339600  0.94991200  1
