# generated using pymatgen
data_Li3V4NiO12
_symmetry_space_group_name_H-M   'P 1'
_cell_length_a   5.01575709
_cell_length_b   5.38967334
_cell_length_c   7.35469289
_cell_angle_alpha   95.39234140
_cell_angle_beta   90.10614039
_cell_angle_gamma   90.27842655
_symmetry_Int_Tables_number   1
_chemical_formula_structural   Li3V4NiO12
_chemical_formula_sum   'Li3 V4 Ni1 O12'
_cell_volume   197.93881497
_cell_formula_units_Z   1
loop_
 _symmetry_equiv_pos_site_id
 _symmetry_equiv_pos_as_xyz
  1  'x, y, z'
loop_
 _atom_site_type_symbol
 _atom_site_label
 _atom_site_symmetry_multiplicity
 _atom_site_fract_x
 _atom_site_fract_y
 _atom_site_fract_z
 _atom_site_occupancy
  Li  Li0  1  0.49908700  0.07340700  0.21367700  1
  Li  Li1  1  0.00190900  0.57304300  0.21815500  1
  Li  Li2  1  0.49637100  0.06949700  0.71187200  1
  V  V3  1  0.00107100  0.01867200  0.99898900  1
  V  V4  1  0.49149600  0.49871100  0.49137700  1
  V  V5  1  0.99359600  0.00357300  0.48729200  1
  V  V6  1  0.50247900  0.51373800  0.99904500  1
  Ni  Ni7  1  0.00246700  0.58832800  0.70338300  1
  O  O8  1  0.30463300  0.77363500  0.58685600  1
  O  O9  1  0.11737500  0.96145100  0.26440300  1
  O  O10  1  0.30907500  0.14956800  0.95995500  1
  O  O11  1  0.18145100  0.27037000  0.58427300  1
  O  O12  1  0.81039700  0.27154100  0.07913200  1
  O  O13  1  0.38567300  0.45421700  0.26046200  1
  O  O14  1  0.63139900  0.45714000  0.77458600  1
  O  O15  1  0.18931900  0.64263800  0.95515300  1
  O  O16  1  0.82483800  0.66275400  0.46663300  1
  O  O17  1  0.68982100  0.77086100  0.08090100  1
  O  O18  1  0.87697800  0.95450700  0.77522300  1
  O  O19  1  0.69056700  0.15154800  0.45903400  1
