# generated using pymatgen
data_Li5NiO3F
_symmetry_space_group_name_H-M   'P 1'
_cell_length_a   9.31420800
_cell_length_b   9.19824000
_cell_length_c   4.72820316
_cell_angle_alpha   90.00000000
_cell_angle_beta   103.85178165
_cell_angle_gamma   90.00000000
_symmetry_Int_Tables_number   1
_chemical_formula_structural   Li5NiO3F
_chemical_formula_sum   'Li20 Ni4 O12 F4'
_cell_volume   393.30501788
_cell_formula_units_Z   4
loop_
 _symmetry_equiv_pos_site_id
 _symmetry_equiv_pos_as_xyz
  1  'x, y, z'
loop_
 _atom_site_type_symbol
 _atom_site_label
 _atom_site_symmetry_multiplicity
 _atom_site_fract_x
 _atom_site_fract_y
 _atom_site_fract_z
 _atom_site_occupancy
  Li  Li0  1  0.12837050  0.71233050  0.38431200  1
  Li  Li1  1  0.87162950  0.71233050  0.61568800  1
  Li  Li2  1  0.12837050  0.28766950  0.38431200  1
  Li  Li3  1  0.87162950  0.28766950  0.61568800  1
  Li  Li4  1  0.87000800  0.80043900  0.12719100  1
  Li  Li5  1  0.86069200  0.50000000  0.12025700  1
  Li  Li6  1  0.13930800  0.50000000  0.87974300  1
  Li  Li7  1  0.87000800  0.19956100  0.12719100  1
  Li  Li8  1  0.12999200  0.19956100  0.87280900  1
  Li  Li9  1  0.12999200  0.80043900  0.87280900  1
  Li  Li10  1  0.62837050  0.21233050  0.38431200  1
  Li  Li11  1  0.37162950  0.21233050  0.61568800  1
  Li  Li12  1  0.62837050  0.78766950  0.38431200  1
  Li  Li13  1  0.37162950  0.78766950  0.61568800  1
  Li  Li14  1  0.37000800  0.30043900  0.12719100  1
  Li  Li15  1  0.36069200  0.00000000  0.12025700  1
  Li  Li16  1  0.63930800  0.00000000  0.87974300  1
  Li  Li17  1  0.37000800  0.69956100  0.12719100  1
  Li  Li18  1  0.62999200  0.69956100  0.87280900  1
  Li  Li19  1  0.62999200  0.30043900  0.87280900  1
  Ni  Ni20  1  0.37273300  0.50000000  0.62580100  1
  Ni  Ni21  1  0.62726700  0.50000000  0.37419900  1
  Ni  Ni22  1  0.87273300  0.00000000  0.62580100  1
  Ni  Ni23  1  0.12726700  0.00000000  0.37419900  1
  O  O24  1  0.00000000  0.86012300  0.50000000  1
  O  O25  1  0.00000000  0.13987700  0.50000000  1
  O  O26  1  0.74643100  0.35430400  0.25269900  1
  O  O27  1  0.74643100  0.64569600  0.25269900  1
  O  O28  1  0.25356900  0.35430400  0.74730100  1
  O  O29  1  0.25356900  0.64569600  0.74730100  1
  O  O30  1  0.50000000  0.36012300  0.50000000  1
  O  O31  1  0.50000000  0.63987700  0.50000000  1
  O  O32  1  0.24643100  0.85430400  0.25269900  1
  O  O33  1  0.24643100  0.14569600  0.25269900  1
  O  O34  1  0.75356900  0.85430400  0.74730100  1
  O  O35  1  0.75356900  0.14569600  0.74730100  1
  F  F36  1  0.00000000  0.64655900  0.00000000  1
  F  F37  1  0.00000000  0.35344100  0.00000000  1
  F  F38  1  0.50000000  0.14655900  0.00000000  1
  F  F39  1  0.50000000  0.85344100  0.00000000  1
