# generated using pymatgen
data_V6O13
_symmetry_space_group_name_H-M   'P 1'
_cell_length_a   10.30036597
_cell_length_b   3.74320100
_cell_length_c   12.15976608
_cell_angle_alpha   90.00000000
_cell_angle_beta   100.84836382
_cell_angle_gamma   90.00000000
_symmetry_Int_Tables_number   1
_chemical_formula_structural   V6O13
_chemical_formula_sum   'V12 O26'
_cell_volume   460.45738220
_cell_formula_units_Z   2
loop_
 _symmetry_equiv_pos_site_id
 _symmetry_equiv_pos_as_xyz
  1  'x, y, z'
loop_
 _atom_site_type_symbol
 _atom_site_label
 _atom_site_symmetry_multiplicity
 _atom_site_fract_x
 _atom_site_fract_y
 _atom_site_fract_z
 _atom_site_occupancy
  V  V0  1  0.63485750  0.25000000  0.53658500  1
  V  V1  1  0.36527350  0.25000000  0.96374300  1
  V  V2  1  0.63472650  0.75000000  0.03625700  1
  V  V3  1  0.36514250  0.75000000  0.46341500  1
  V  V4  1  0.63614650  0.25000000  0.83726600  1
  V  V5  1  0.36385350  0.75000000  0.16273400  1
  V  V6  1  0.36394550  0.25000000  0.66301400  1
  V  V7  1  0.63605450  0.75000000  0.33698600  1
  V  V8  1  0.00164050  0.25000000  0.89704800  1
  V  V9  1  0.99917350  0.25000000  0.59976900  1
  V  V10  1  0.99835950  0.75000000  0.10295200  1
  V  V11  1  0.00082650  0.75000000  0.40023100  1
  O  O12  1  0.80213450  0.75000000  0.36311300  1
  O  O13  1  0.80205350  0.25000000  0.86436900  1
  O  O14  1  0.19786550  0.25000000  0.63688700  1
  O  O15  1  0.19794650  0.75000000  0.13563100  1
  O  O16  1  0.80162350  0.25000000  0.57373200  1
  O  O17  1  0.19807250  0.25000000  0.92765100  1
  O  O18  1  0.80192750  0.75000000  0.07234900  1
  O  O19  1  0.19837650  0.75000000  0.42626800  1
  O  O20  1  0.59104650  0.25000000  0.68987100  1
  O  O21  1  0.59102750  0.75000000  0.18949300  1
  O  O22  1  0.40895350  0.75000000  0.31012900  1
  O  O23  1  0.40897250  0.25000000  0.81050700  1
  O  O24  1  0.61541250  0.25000000  0.36982000  1
  O  O25  1  0.61474950  0.75000000  0.86985800  1
  O  O26  1  0.38458750  0.75000000  0.63018000  1
  O  O27  1  0.38525050  0.25000000  0.13014200  1
  O  O28  1  0.41036650  0.25000000  0.50349400  1
  O  O29  1  0.58963350  0.75000000  0.49650600  1
  O  O30  1  0.41060450  0.75000000  0.00345600  1
  O  O31  1  0.58939550  0.25000000  0.99654400  1
  O  O32  1  0.99964750  0.25000000  0.75428600  1
  O  O33  1  0.00035250  0.75000000  0.24571400  1
  O  O34  1  0.00047250  0.75000000  0.93351500  1
  O  O35  1  0.99959750  0.25000000  0.42833700  1
  O  O36  1  0.00040250  0.75000000  0.57166300  1
  O  O37  1  0.99952750  0.25000000  0.06648500  1
