# generated using pymatgen
data_Mn2Co5O12
_symmetry_space_group_name_H-M   'P 1'
_cell_length_a   4.90766800
_cell_length_b   8.50648800
_cell_length_c   9.64720121
_cell_angle_alpha   90.00000000
_cell_angle_beta   101.88980172
_cell_angle_gamma   90.00000000
_symmetry_Int_Tables_number   1
_chemical_formula_structural   Mn2Co5O12
_chemical_formula_sum   'Mn4 Co10 O24'
_cell_volume   394.10133546
_cell_formula_units_Z   2
loop_
 _symmetry_equiv_pos_site_id
 _symmetry_equiv_pos_as_xyz
  1  'x, y, z'
loop_
 _atom_site_type_symbol
 _atom_site_label
 _atom_site_symmetry_multiplicity
 _atom_site_fract_x
 _atom_site_fract_y
 _atom_site_fract_z
 _atom_site_occupancy
  Mn  Mn0  1  0.50000000  0.73204800  0.50000000  1
  Mn  Mn1  1  0.00000000  0.75176300  0.00000000  1
  Mn  Mn2  1  0.00000000  0.23204800  0.50000000  1
  Mn  Mn3  1  0.50000000  0.25176300  0.00000000  1
  Co  Co4  1  0.50000000  0.58633000  0.00000000  1
  Co  Co5  1  0.76109750  0.77929350  0.27043400  1
  Co  Co6  1  0.23890250  0.77929350  0.72956600  1
  Co  Co7  1  0.50000000  0.92243300  0.00000000  1
  Co  Co8  1  0.00000000  0.57282100  0.50000000  1
  Co  Co9  1  0.00000000  0.08633000  0.00000000  1
  Co  Co10  1  0.26109750  0.27929350  0.27043400  1
  Co  Co11  1  0.73890250  0.27929350  0.72956600  1
  Co  Co12  1  0.00000000  0.42243300  0.00000000  1
  Co  Co13  1  0.50000000  0.07282100  0.50000000  1
  O  O14  1  0.64738200  0.59716900  0.37876600  1
  O  O15  1  0.35261800  0.59716900  0.62123400  1
  O  O16  1  0.60627850  0.75396750  0.89244400  1
  O  O17  1  0.39372150  0.75396750  0.10755600  1
  O  O18  1  0.61224700  0.90194700  0.38947400  1
  O  O19  1  0.38775300  0.90194700  0.61052600  1
  O  O20  1  0.13026800  0.59301300  0.89343700  1
  O  O21  1  0.86973200  0.59301300  0.10656300  1
  O  O22  1  0.12246400  0.71798300  0.39071000  1
  O  O23  1  0.87753600  0.71798300  0.60929000  1
  O  O24  1  0.13100150  0.91321850  0.88964200  1
  O  O25  1  0.86899850  0.91321850  0.11035800  1
  O  O26  1  0.14738200  0.09716900  0.37876600  1
  O  O27  1  0.85261800  0.09716900  0.62123400  1
  O  O28  1  0.10627850  0.25396750  0.89244400  1
  O  O29  1  0.89372150  0.25396750  0.10755600  1
  O  O30  1  0.11224700  0.40194700  0.38947400  1
  O  O31  1  0.88775300  0.40194700  0.61052600  1
  O  O32  1  0.63026800  0.09301300  0.89343700  1
  O  O33  1  0.36973200  0.09301300  0.10656300  1
  O  O34  1  0.62246400  0.21798300  0.39071000  1
  O  O35  1  0.37753600  0.21798300  0.60929000  1
  O  O36  1  0.63100150  0.41321850  0.88964200  1
  O  O37  1  0.36899850  0.41321850  0.11035800  1
