# generated using pymatgen
data_BaTi8O16
_symmetry_space_group_name_H-M   'P 1'
_cell_length_a   20.07969000
_cell_length_b   5.95756000
_cell_length_c   14.32088778
_cell_angle_alpha   90.00000000
_cell_angle_beta   133.44235872
_cell_angle_gamma   90.00000000
_symmetry_Int_Tables_number   1
_chemical_formula_structural   BaTi8O16
_chemical_formula_sum   'Ba4 Ti32 O64'
_cell_volume   1243.86078188
_cell_formula_units_Z   4
loop_
 _symmetry_equiv_pos_site_id
 _symmetry_equiv_pos_as_xyz
  1  'x, y, z'
loop_
 _atom_site_type_symbol
 _atom_site_label
 _atom_site_symmetry_multiplicity
 _atom_site_fract_x
 _atom_site_fract_y
 _atom_site_fract_z
 _atom_site_occupancy
  Ba  Ba0  1  0.50000000  0.51934600  0.50000000  1
  Ba  Ba1  1  0.00000000  0.27066300  0.00000000  1
  Ba  Ba2  1  0.00000000  0.01934600  0.50000000  1
  Ba  Ba3  1  0.50000000  0.77066300  0.00000000  1
  Ti  Ti4  1  0.41060250  0.25135450  0.67059200  1
  Ti  Ti5  1  0.40727750  0.74870450  0.65942500  1
  Ti  Ti6  1  0.58903900  0.99922100  0.82808300  1
  Ti  Ti7  1  0.59258750  0.50110550  0.84159700  1
  Ti  Ti8  1  0.76696400  0.74879700  0.85576600  1
  Ti  Ti9  1  0.75651350  0.25080850  0.85041300  1
  Ti  Ti10  1  0.26679250  0.00088750  0.35529700  1
  Ti  Ti11  1  0.25697100  0.49879500  0.35094500  1
  Ti  Ti12  1  0.74302900  0.49879500  0.64905500  1
  Ti  Ti13  1  0.73320750  0.00088750  0.64470300  1
  Ti  Ti14  1  0.23303600  0.74879700  0.14423400  1
  Ti  Ti15  1  0.24348650  0.25080850  0.14958700  1
  Ti  Ti16  1  0.40741250  0.50110550  0.15840300  1
  Ti  Ti17  1  0.41096100  0.99922100  0.17191700  1
  Ti  Ti18  1  0.58939750  0.25135450  0.32940800  1
  Ti  Ti19  1  0.59272250  0.74870450  0.34057500  1
  Ti  Ti20  1  0.91060250  0.75135450  0.67059200  1
  Ti  Ti21  1  0.90727750  0.24870450  0.65942500  1
  Ti  Ti22  1  0.08903900  0.49922100  0.82808300  1
  Ti  Ti23  1  0.09258750  0.00110550  0.84159700  1
  Ti  Ti24  1  0.26696400  0.24879700  0.85576600  1
  Ti  Ti25  1  0.25651350  0.75080850  0.85041300  1
  Ti  Ti26  1  0.76679250  0.50088750  0.35529700  1
  Ti  Ti27  1  0.75697100  0.99879500  0.35094500  1
  Ti  Ti28  1  0.24302900  0.99879500  0.64905500  1
  Ti  Ti29  1  0.23320750  0.50088750  0.64470300  1
  Ti  Ti30  1  0.73303600  0.24879700  0.14423400  1
  Ti  Ti31  1  0.74348650  0.75080850  0.14958700  1
  Ti  Ti32  1  0.90741250  0.00110550  0.15840300  1
  Ti  Ti33  1  0.91096100  0.49922100  0.17191700  1
  Ti  Ti34  1  0.08939750  0.75135450  0.32940800  1
  Ti  Ti35  1  0.09272250  0.24870450  0.34057500  1
  O  O36  1  0.47171250  0.99635250  0.79316000  1
  O  O37  1  0.47257950  0.50533750  0.79571500  1
  O  O38  1  0.64167200  0.24459500  0.95887100  1
  O  O39  1  0.63850450  0.75411550  0.96030800  1
  O  O40  1  0.36159250  0.49665050  0.53965800  1
  O  O41  1  0.35841250  0.00437650  0.54109600  1
  O  O42  1  0.52755600  0.74566400  0.70415300  1
  O  O43  1  0.52828550  0.25422250  0.70721000  1
  O  O44  1  0.69456600  0.99439200  0.84839900  1
  O  O45  1  0.69177800  0.50436600  0.84379700  1
  O  O46  1  0.19436150  0.75473750  0.34799100  1
  O  O47  1  0.19201000  0.24502900  0.34405500  1
  O  O48  1  0.82115750  0.00370650  0.84002600  1
  O  O49  1  0.82361600  0.49525800  0.84110600  1
  O  O50  1  0.32170350  0.74585250  0.34039600  1
  O  O51  1  0.32336050  0.25506850  0.34082500  1
  O  O52  1  0.67829650  0.74585250  0.65960400  1
  O  O53  1  0.67663950  0.25506850  0.65917500  1
  O  O54  1  0.17638400  0.49525800  0.15889400  1
  O  O55  1  0.17884250  0.00370650  0.15997400  1
  O  O56  1  0.80563850  0.75473750  0.65200900  1
  O  O57  1  0.80799000  0.24502900  0.65594500  1
  O  O58  1  0.30822200  0.50436600  0.15620300  1
  O  O59  1  0.30543400  0.99439200  0.15160100  1
  O  O60  1  0.47171450  0.25422250  0.29279000  1
  O  O61  1  0.47244400  0.74566400  0.29584700  1
  O  O62  1  0.63840750  0.49665050  0.46034200  1
  O  O63  1  0.64158750  0.00437650  0.45890400  1
  O  O64  1  0.36149550  0.75411550  0.03969200  1
  O  O65  1  0.35832800  0.24459500  0.04112900  1
  O  O66  1  0.52742050  0.50533750  0.20428500  1
  O  O67  1  0.52828750  0.99635250  0.20684000  1
  O  O68  1  0.97171250  0.49635250  0.79316000  1
  O  O69  1  0.97257950  0.00533750  0.79571500  1
  O  O70  1  0.14167200  0.74459500  0.95887100  1
  O  O71  1  0.13850450  0.25411550  0.96030800  1
  O  O72  1  0.86159250  0.99665050  0.53965800  1
  O  O73  1  0.85841250  0.50437650  0.54109600  1
  O  O74  1  0.02755600  0.24566400  0.70415300  1
  O  O75  1  0.02828550  0.75422250  0.70721000  1
  O  O76  1  0.19456600  0.49439200  0.84839900  1
  O  O77  1  0.19177800  0.00436600  0.84379700  1
  O  O78  1  0.69436150  0.25473750  0.34799100  1
  O  O79  1  0.69201000  0.74502900  0.34405500  1
  O  O80  1  0.32115750  0.50370650  0.84002600  1
  O  O81  1  0.32361600  0.99525800  0.84110600  1
  O  O82  1  0.82170350  0.24585250  0.34039600  1
  O  O83  1  0.82336050  0.75506850  0.34082500  1
  O  O84  1  0.17829650  0.24585250  0.65960400  1
  O  O85  1  0.17663950  0.75506850  0.65917500  1
  O  O86  1  0.67638400  0.99525800  0.15889400  1
  O  O87  1  0.67884250  0.50370650  0.15997400  1
  O  O88  1  0.30563850  0.25473750  0.65200900  1
  O  O89  1  0.30799000  0.74502900  0.65594500  1
  O  O90  1  0.80822200  0.00436600  0.15620300  1
  O  O91  1  0.80543400  0.49439200  0.15160100  1
  O  O92  1  0.97171450  0.75422250  0.29279000  1
  O  O93  1  0.97244400  0.24566400  0.29584700  1
  O  O94  1  0.13840750  0.99665050  0.46034200  1
  O  O95  1  0.14158750  0.50437650  0.45890400  1
  O  O96  1  0.86149550  0.25411550  0.03969200  1
  O  O97  1  0.85832800  0.74459500  0.04112900  1
  O  O98  1  0.02742050  0.00533750  0.20428500  1
  O  O99  1  0.02828750  0.49635250  0.20684000  1
