# generated using pymatgen
data_Al2CoO4
_symmetry_space_group_name_H-M   'P 1'
_cell_length_a   5.78186168
_cell_length_b   5.78186168
_cell_length_c   28.37466000
_cell_angle_alpha   90.00000000
_cell_angle_beta   90.00000000
_cell_angle_gamma   120.00000000
_symmetry_Int_Tables_number   1
_chemical_formula_structural   Al2CoO4
_chemical_formula_sum   'Al24 Co12 O48'
_cell_volume   821.47943000
_cell_formula_units_Z   12
loop_
 _symmetry_equiv_pos_site_id
 _symmetry_equiv_pos_as_xyz
  1  'x, y, z'
loop_
 _atom_site_type_symbol
 _atom_site_label
 _atom_site_symmetry_multiplicity
 _atom_site_fract_x
 _atom_site_fract_y
 _atom_site_fract_z
 _atom_site_occupancy
  Al  Al0  1  0.33333333  0.66666667  0.95585500  1
  Al  Al1  1  0.83682700  0.16317300  0.89584800  1
  Al  Al2  1  0.32634600  0.16317300  0.89584800  1
  Al  Al3  1  0.66666667  0.33333333  0.79084700  1
  Al  Al4  1  0.83682700  0.67365400  0.89584800  1
  Al  Al5  1  0.16841700  0.83158300  0.72911000  1
  Al  Al6  1  0.66316600  0.83158300  0.72911000  1
  Al  Al7  1  0.16841700  0.33683400  0.72911000  1
  Al  Al8  1  0.50022500  0.49977500  0.56250300  1
  Al  Al9  1  0.33333333  0.66666667  0.64542900  1
  Al  Al10  1  0.99955000  0.49977500  0.56250300  1
  Al  Al11  1  0.50022500  0.00045000  0.56250300  1
  Al  Al12  1  0.83336900  0.16663100  0.39565900  1
  Al  Al13  1  0.66666667  0.33333333  0.47906400  1
  Al  Al14  1  0.33326200  0.16663100  0.39565900  1
  Al  Al15  1  0.83336900  0.66673800  0.39565900  1
  Al  Al16  1  0.16661900  0.83338100  0.22876400  1
  Al  Al17  1  0.00000000  0.00000000  0.31221400  1
  Al  Al18  1  0.66676200  0.83338100  0.22876400  1
  Al  Al19  1  0.16661900  0.33323800  0.22876400  1
  Al  Al20  1  0.50206300  0.49793700  0.06285400  1
  Al  Al21  1  0.99587400  0.49793700  0.06285400  1
  Al  Al22  1  0.33333333  0.66666667  0.14564900  1
  Al  Al23  1  0.50206300  0.00412600  0.06285400  1
  Co  Co24  1  0.00000000  0.00000000  0.00175000  1
  Co  Co25  1  0.66666667  0.33333333  0.98066000  1
  Co  Co26  1  0.33333333  0.66666667  0.83450000  1
  Co  Co27  1  0.00000000  0.00000000  0.81291400  1
  Co  Co28  1  0.00000000  0.00000000  0.49982300  1
  Co  Co29  1  0.66666667  0.33333333  0.66679400  1
  Co  Co30  1  0.00000000  0.00000000  0.62602200  1
  Co  Co31  1  0.33333333  0.66666667  0.45839800  1
  Co  Co32  1  0.33333333  0.66666667  0.33293100  1
  Co  Co33  1  0.66666667  0.33333333  0.29141500  1
  Co  Co34  1  0.00000000  0.00000000  0.12326400  1
  Co  Co35  1  0.66666667  0.33333333  0.16724300  1
  O  O36  1  0.50560150  0.01120300  0.93285500  1
  O  O37  1  0.66666667  0.33333333  0.85681400  1
  O  O38  1  0.98879700  0.49439850  0.93285500  1
  O  O39  1  0.50560150  0.49439850  0.93285500  1
  O  O40  1  0.15313100  0.84686900  0.85993600  1
  O  O41  1  0.83425100  0.66850200  0.76615500  1
  O  O42  1  0.00000000  0.00000000  0.69728200  1
  O  O43  1  0.69373800  0.84686900  0.85993600  1
  O  O44  1  0.00000000  0.00000000  0.93179300  1
  O  O45  1  0.33149800  0.16574900  0.76615500  1
  O  O46  1  0.83425100  0.16574900  0.76615500  1
  O  O47  1  0.15313100  0.30626200  0.85993600  1
  O  O48  1  0.18534750  0.37069500  0.60195000  1
  O  O49  1  0.47971700  0.52028300  0.68927100  1
  O  O50  1  0.33333333  0.66666667  0.52842400  1
  O  O51  1  0.04056600  0.52028300  0.68927100  1
  O  O52  1  0.33333333  0.66666667  0.76387200  1
  O  O53  1  0.62930500  0.81465250  0.60195000  1
  O  O54  1  0.18534750  0.81465250  0.60195000  1
  O  O55  1  0.47971700  0.95943400  0.68927100  1
  O  O56  1  0.81405300  0.18594700  0.52341200  1
  O  O57  1  0.51929850  0.03859700  0.43518900  1
  O  O58  1  0.37189400  0.18594700  0.52341200  1
  O  O59  1  0.66666667  0.33333333  0.59712200  1
  O  O60  1  0.66666667  0.33333333  0.36140400  1
  O  O61  1  0.96140300  0.48070150  0.43518900  1
  O  O62  1  0.81405300  0.62810600  0.52341200  1
  O  O63  1  0.51929850  0.48070150  0.43518900  1
  O  O64  1  0.14740600  0.85259400  0.35657200  1
  O  O65  1  0.85276400  0.70552800  0.26823700  1
  O  O66  1  0.00000000  0.00000000  0.43025400  1
  O  O67  1  0.00000000  0.00000000  0.19396600  1
  O  O68  1  0.70518800  0.85259400  0.35657200  1
  O  O69  1  0.29447200  0.14723600  0.26823700  1
  O  O70  1  0.14740600  0.29481200  0.35657200  1
  O  O71  1  0.85276400  0.14723600  0.26823700  1
  O  O72  1  0.18847050  0.37694100  0.10124300  1
  O  O73  1  0.48044200  0.51955800  0.18993600  1
  O  O74  1  0.33333333  0.66666667  0.26351600  1
  O  O75  1  0.33333333  0.66666667  0.02092100  1
  O  O76  1  0.03911600  0.51955800  0.18993600  1
  O  O77  1  0.62305900  0.81152950  0.10124300  1
  O  O78  1  0.48044200  0.96088400  0.18993600  1
  O  O79  1  0.18847050  0.81152950  0.10124300  1
  O  O80  1  0.82043500  0.17956500  0.02764400  1
  O  O81  1  0.35913000  0.17956500  0.02764400  1
  O  O82  1  0.66666667  0.33333333  0.09844500  1
  O  O83  1  0.82043500  0.64087000  0.02764400  1
