# generated using pymatgen
data_Li4Mn3Fe3(NiO8)2
_symmetry_space_group_name_H-M   'P 1'
_cell_length_a   10.16139200
_cell_length_b   5.84505400
_cell_length_c   9.60446887
_cell_angle_alpha   90.00000000
_cell_angle_beta   90.22011083
_cell_angle_gamma   90.00000000
_symmetry_Int_Tables_number   1
_chemical_formula_structural   Li4Mn3Fe3(NiO8)2
_chemical_formula_sum   'Li8 Mn6 Fe6 Ni4 O32'
_cell_volume   570.44250988
_cell_formula_units_Z   2
loop_
 _symmetry_equiv_pos_site_id
 _symmetry_equiv_pos_as_xyz
  1  'x, y, z'
loop_
 _atom_site_type_symbol
 _atom_site_label
 _atom_site_symmetry_multiplicity
 _atom_site_fract_x
 _atom_site_fract_y
 _atom_site_fract_z
 _atom_site_occupancy
  Li  Li0  1  0.66751800  0.00000000  0.89207900  1
  Li  Li1  1  0.99914300  0.00000000  0.99845000  1
  Li  Li2  1  0.50012200  0.50000000  0.49787800  1
  Li  Li3  1  0.83293200  0.50000000  0.39140400  1
  Li  Li4  1  0.16751800  0.50000000  0.89207900  1
  Li  Li5  1  0.49914300  0.50000000  0.99845000  1
  Li  Li6  1  0.00012200  0.00000000  0.49787800  1
  Li  Li7  1  0.33293200  0.00000000  0.39140400  1
  Mn  Mn8  1  0.83013900  0.00000000  0.21368800  1
  Mn  Mn9  1  0.91561850  0.74683050  0.71485200  1
  Mn  Mn10  1  0.91561850  0.25316950  0.71485200  1
  Mn  Mn11  1  0.33013900  0.50000000  0.21368800  1
  Mn  Mn12  1  0.41561850  0.24683050  0.71485200  1
  Mn  Mn13  1  0.41561850  0.75316950  0.71485200  1
  Fe  Fe14  1  0.58422350  0.24646850  0.21436300  1
  Fe  Fe15  1  0.58422350  0.75353150  0.21436300  1
  Fe  Fe16  1  0.66858000  0.50000000  0.71480400  1
  Fe  Fe17  1  0.08422350  0.74646850  0.21436300  1
  Fe  Fe18  1  0.08422350  0.25353150  0.21436300  1
  Fe  Fe19  1  0.16858000  0.00000000  0.71480400  1
  Ni  Ni20  1  0.66734800  0.00000000  0.48934400  1
  Ni  Ni21  1  0.83281500  0.50000000  0.98741300  1
  Ni  Ni22  1  0.16734800  0.50000000  0.48934400  1
  Ni  Ni23  1  0.33281500  0.00000000  0.98741300  1
  O  O24  1  0.57915250  0.25937350  0.60714200  1
  O  O25  1  0.51813400  0.00000000  0.33322500  1
  O  O26  1  0.67298700  0.00000000  0.10122500  1
  O  O27  1  0.99336600  0.00000000  0.31355300  1
  O  O28  1  0.99292700  0.00000000  0.81380500  1
  O  O29  1  0.57915250  0.74062650  0.60714200  1
  O  O30  1  0.74246100  0.22086000  0.33242100  1
  O  O31  1  0.74246100  0.77914000  0.33242100  1
  O  O32  1  0.66087300  0.50000000  0.10527000  1
  O  O33  1  0.84172800  0.00000000  0.60610400  1
  O  O34  1  0.76090050  0.72391750  0.83202000  1
  O  O35  1  0.76090050  0.27608250  0.83202000  1
  O  O36  1  0.84117100  0.50000000  0.60557200  1
  O  O37  1  0.91825550  0.76053550  0.10489400  1
  O  O38  1  0.98147600  0.50000000  0.83256600  1
  O  O39  1  0.91825550  0.23946450  0.10489400  1
  O  O40  1  0.07915250  0.75937350  0.60714200  1
  O  O41  1  0.01813400  0.50000000  0.33322500  1
  O  O42  1  0.17298700  0.50000000  0.10122500  1
  O  O43  1  0.49336600  0.50000000  0.31355300  1
  O  O44  1  0.49292700  0.50000000  0.81380500  1
  O  O45  1  0.07915250  0.24062650  0.60714200  1
  O  O46  1  0.24246100  0.72086000  0.33242100  1
  O  O47  1  0.24246100  0.27914000  0.33242100  1
  O  O48  1  0.16087300  0.00000000  0.10527000  1
  O  O49  1  0.34172800  0.50000000  0.60610400  1
  O  O50  1  0.26090050  0.22391750  0.83202000  1
  O  O51  1  0.26090050  0.77608250  0.83202000  1
  O  O52  1  0.34117100  0.00000000  0.60557200  1
  O  O53  1  0.41825550  0.26053550  0.10489400  1
  O  O54  1  0.48147600  0.00000000  0.83256600  1
  O  O55  1  0.41825550  0.73946450  0.10489400  1
