# generated using pymatgen
data_Ce3TaO7
_symmetry_space_group_name_H-M   'P 1'
_cell_length_a   7.51204600
_cell_length_b   11.03984200
_cell_length_c   7.71567200
_cell_angle_alpha   90.00000000
_cell_angle_beta   90.00000000
_cell_angle_gamma   90.00000000
_symmetry_Int_Tables_number   1
_chemical_formula_structural   Ce3TaO7
_chemical_formula_sum   'Ce12 Ta4 O28'
_cell_volume   639.87457440
_cell_formula_units_Z   4
loop_
 _symmetry_equiv_pos_site_id
 _symmetry_equiv_pos_as_xyz
  1  'x, y, z'
loop_
 _atom_site_type_symbol
 _atom_site_label
 _atom_site_symmetry_multiplicity
 _atom_site_fract_x
 _atom_site_fract_y
 _atom_site_fract_z
 _atom_site_occupancy
  Ce  Ce0  1  0.29758850  0.22839850  0.25000000  1
  Ce  Ce1  1  0.70241150  0.22839850  0.75000000  1
  Ce  Ce2  1  0.00000000  0.00000000  0.00000000  1
  Ce  Ce3  1  0.00000000  0.00000000  0.50000000  1
  Ce  Ce4  1  0.29758850  0.77160150  0.25000000  1
  Ce  Ce5  1  0.70241150  0.77160150  0.75000000  1
  Ce  Ce6  1  0.79758850  0.72839850  0.25000000  1
  Ce  Ce7  1  0.20241150  0.72839850  0.75000000  1
  Ce  Ce8  1  0.50000000  0.50000000  0.00000000  1
  Ce  Ce9  1  0.50000000  0.50000000  0.50000000  1
  Ce  Ce10  1  0.79758850  0.27160150  0.25000000  1
  Ce  Ce11  1  0.20241150  0.27160150  0.75000000  1
  Ta  Ta12  1  0.50000000  0.00000000  0.00000000  1
  Ta  Ta13  1  0.50000000  0.00000000  0.50000000  1
  Ta  Ta14  1  0.00000000  0.50000000  0.00000000  1
  Ta  Ta15  1  0.00000000  0.50000000  0.50000000  1
  O  O16  1  0.47274800  0.36941500  0.75000000  1
  O  O17  1  0.52725200  0.36941500  0.25000000  1
  O  O18  1  0.30947450  0.12764450  0.53749300  1
  O  O19  1  0.69052550  0.12764450  0.03749300  1
  O  O20  1  0.69052550  0.12764450  0.46250700  1
  O  O21  1  0.30947450  0.12764450  0.96250700  1
  O  O22  1  0.57018500  0.00000000  0.75000000  1
  O  O23  1  0.42981500  0.00000000  0.25000000  1
  O  O24  1  0.30947450  0.87235550  0.96250700  1
  O  O25  1  0.69052550  0.87235550  0.03749300  1
  O  O26  1  0.30947450  0.87235550  0.53749300  1
  O  O27  1  0.69052550  0.87235550  0.46250700  1
  O  O28  1  0.47274800  0.63058500  0.75000000  1
  O  O29  1  0.52725200  0.63058500  0.25000000  1
  O  O30  1  0.97274800  0.86941500  0.75000000  1
  O  O31  1  0.02725200  0.86941500  0.25000000  1
  O  O32  1  0.80947450  0.62764450  0.53749300  1
  O  O33  1  0.19052550  0.62764450  0.03749300  1
  O  O34  1  0.19052550  0.62764450  0.46250700  1
  O  O35  1  0.80947450  0.62764450  0.96250700  1
  O  O36  1  0.07018500  0.50000000  0.75000000  1
  O  O37  1  0.92981500  0.50000000  0.25000000  1
  O  O38  1  0.80947450  0.37235550  0.96250700  1
  O  O39  1  0.19052550  0.37235550  0.03749300  1
  O  O40  1  0.80947450  0.37235550  0.53749300  1
  O  O41  1  0.19052550  0.37235550  0.46250700  1
  O  O42  1  0.97274800  0.13058500  0.75000000  1
  O  O43  1  0.02725200  0.13058500  0.25000000  1
