# generated using pymatgen
data_Cr(PO3)4
_symmetry_space_group_name_H-M   'P 1'
_cell_length_a   11.75398200
_cell_length_b   8.26341400
_cell_length_c   10.08397276
_cell_angle_alpha   90.00000000
_cell_angle_beta   118.86982282
_cell_angle_gamma   90.00000000
_symmetry_Int_Tables_number   1
_chemical_formula_structural   Cr(PO3)4
_chemical_formula_sum   'Cr4 P16 O48'
_cell_volume   857.71092637
_cell_formula_units_Z   4
loop_
 _symmetry_equiv_pos_site_id
 _symmetry_equiv_pos_as_xyz
  1  'x, y, z'
loop_
 _atom_site_type_symbol
 _atom_site_label
 _atom_site_symmetry_multiplicity
 _atom_site_fract_x
 _atom_site_fract_y
 _atom_site_fract_z
 _atom_site_occupancy
  Cr  Cr0  1  0.50000000  0.94605500  0.75000000  1
  Cr  Cr1  1  0.00000000  0.55394500  0.25000000  1
  Cr  Cr2  1  0.00000000  0.44605500  0.75000000  1
  Cr  Cr3  1  0.50000000  0.05394500  0.25000000  1
  P  P4  1  0.99032600  0.24391000  0.01867800  1
  P  P5  1  0.50967400  0.74391000  0.48132200  1
  P  P6  1  0.20045550  0.01196850  0.69325600  1
  P  P7  1  0.20045550  0.98803150  0.19325600  1
  P  P8  1  0.29954450  0.51196850  0.80674400  1
  P  P9  1  0.29954450  0.48803150  0.30674400  1
  P  P10  1  0.99032600  0.75609000  0.51867800  1
  P  P11  1  0.50967400  0.25609000  0.98132200  1
  P  P12  1  0.49032600  0.74391000  0.01867800  1
  P  P13  1  0.00967400  0.24391000  0.48132200  1
  P  P14  1  0.70045550  0.51196850  0.69325600  1
  P  P15  1  0.70045550  0.48803150  0.19325600  1
  P  P16  1  0.79954450  0.01196850  0.80674400  1
  P  P17  1  0.79954450  0.98803150  0.30674400  1
  P  P18  1  0.49032600  0.25609000  0.51867800  1
  P  P19  1  0.00967400  0.75609000  0.98132200  1
  O  O20  1  0.96654350  0.38248750  0.09722500  1
  O  O21  1  0.08739600  0.12056200  0.14493000  1
  O  O22  1  0.03345650  0.38248750  0.40277500  1
  O  O23  1  0.53261450  0.77287150  0.90198100  1
  O  O24  1  0.22995400  0.92034200  0.34281800  1
  O  O25  1  0.81638050  0.56588750  0.19050700  1
  O  O26  1  0.31638050  0.93411250  0.69050700  1
  O  O27  1  0.14357100  0.14138300  0.55739000  1
  O  O28  1  0.22995400  0.07965800  0.84281800  1
  O  O29  1  0.46738550  0.77287150  0.59801900  1
  O  O30  1  0.41260400  0.62056200  0.35507000  1
  O  O31  1  0.14357100  0.85861700  0.05739000  1
  O  O32  1  0.35642900  0.64138300  0.94261000  1
  O  O33  1  0.08739600  0.87943800  0.64493000  1
  O  O34  1  0.03261450  0.72712850  0.40198100  1
  O  O35  1  0.27004600  0.42034200  0.15718200  1
  O  O36  1  0.35642900  0.35861700  0.44261000  1
  O  O37  1  0.18361950  0.56588750  0.30949300  1
  O  O38  1  0.68361950  0.93411250  0.80949300  1
  O  O39  1  0.27004600  0.57965800  0.65718200  1
  O  O40  1  0.96738550  0.72712850  0.09801900  1
  O  O41  1  0.46654350  0.11751250  0.59722500  1
  O  O42  1  0.41260400  0.37943800  0.85507000  1
  O  O43  1  0.53345650  0.11751250  0.90277500  1
  O  O44  1  0.46654350  0.88248750  0.09722500  1
  O  O45  1  0.58739600  0.62056200  0.14493000  1
  O  O46  1  0.53345650  0.88248750  0.40277500  1
  O  O47  1  0.03261450  0.27287150  0.90198100  1
  O  O48  1  0.72995400  0.42034200  0.34281800  1
  O  O49  1  0.31638050  0.06588750  0.19050700  1
  O  O50  1  0.81638050  0.43411250  0.69050700  1
  O  O51  1  0.64357100  0.64138300  0.55739000  1
  O  O52  1  0.72995400  0.57965800  0.84281800  1
  O  O53  1  0.96738550  0.27287150  0.59801900  1
  O  O54  1  0.91260400  0.12056200  0.35507000  1
  O  O55  1  0.64357100  0.35861700  0.05739000  1
  O  O56  1  0.85642900  0.14138300  0.94261000  1
  O  O57  1  0.58739600  0.37943800  0.64493000  1
  O  O58  1  0.53261450  0.22712850  0.40198100  1
  O  O59  1  0.77004600  0.92034200  0.15718200  1
  O  O60  1  0.85642900  0.85861700  0.44261000  1
  O  O61  1  0.68361950  0.06588750  0.30949300  1
  O  O62  1  0.18361950  0.43411250  0.80949300  1
  O  O63  1  0.77004600  0.07965800  0.65718200  1
  O  O64  1  0.46738550  0.22712850  0.09801900  1
  O  O65  1  0.96654350  0.61751250  0.59722500  1
  O  O66  1  0.91260400  0.87943800  0.85507000  1
  O  O67  1  0.03345650  0.61751250  0.90277500  1
