# generated using pymatgen
data_Li32Mn5Cr11O48
_symmetry_space_group_name_H-M   'P 1'
_cell_length_a   5.04553800
_cell_length_b   8.67012200
_cell_length_c   38.45336428
_cell_angle_alpha   90.00000000
_cell_angle_beta   91.97129706
_cell_angle_gamma   90.00000000
_symmetry_Int_Tables_number   1
_chemical_formula_structural   Li32Mn5Cr11O48
_chemical_formula_sum   'Li64 Mn10 Cr22 O96'
_cell_volume   1681.16342898
_cell_formula_units_Z   2
loop_
 _symmetry_equiv_pos_site_id
 _symmetry_equiv_pos_as_xyz
  1  'x, y, z'
loop_
 _atom_site_type_symbol
 _atom_site_label
 _atom_site_symmetry_multiplicity
 _atom_site_fract_x
 _atom_site_fract_y
 _atom_site_fract_z
 _atom_site_occupancy
  Li  Li0  1  0.68773800  0.77883800  0.06250100  1
  Li  Li1  1  0.44241850  0.43641250  0.31239700  1
  Li  Li2  1  0.87087450  0.93579450  0.12499000  1
  Li  Li3  1  0.81190350  0.93468250  0.93746400  1
  Li  Li4  1  0.75551600  0.93667000  0.75003400  1
  Li  Li5  1  0.68844100  0.93723500  0.56242800  1
  Li  Li6  1  0.62490200  0.93761300  0.37494000  1
  Li  Li7  1  0.55967150  0.60043150  0.18759500  1
  Li  Li8  1  0.56723500  0.93305700  0.18748300  1
  Li  Li9  1  0.44032850  0.60043150  0.81240500  1
  Li  Li10  1  0.81690400  0.09667200  0.43762800  1
  Li  Li11  1  0.50000000  0.93748800  0.00000000  1
  Li  Li12  1  0.43276500  0.93305700  0.81251700  1
  Li  Li13  1  0.68636600  0.09835000  0.06262900  1
  Li  Li14  1  0.56711250  0.09952450  0.68766300  1
  Li  Li15  1  0.56244900  0.77693700  0.68753200  1
  Li  Li16  1  0.43755100  0.77693700  0.31246800  1
  Li  Li17  1  0.43288750  0.09952450  0.31233700  1
  Li  Li18  1  0.31363400  0.09835000  0.93737100  1
  Li  Li19  1  0.31226200  0.77883800  0.93749900  1
  Li  Li20  1  0.69076200  0.27766900  0.56251100  1
  Li  Li21  1  0.37509800  0.93761300  0.62506000  1
  Li  Li22  1  0.56123500  0.27824800  0.18739900  1
  Li  Li23  1  0.43876500  0.27824800  0.81260100  1
  Li  Li24  1  0.31155900  0.93723500  0.43757200  1
  Li  Li25  1  0.30923800  0.27766900  0.43748900  1
  Li  Li26  1  0.24448400  0.93667000  0.24996600  1
  Li  Li27  1  0.18809650  0.93468250  0.06253600  1
  Li  Li28  1  0.12912550  0.93579450  0.87501000  1
  Li  Li29  1  0.55758150  0.43641250  0.68760300  1
  Li  Li30  1  0.50000000  0.43984100  0.50000000  1
  Li  Li31  1  0.18309600  0.09667200  0.56237200  1
  Li  Li32  1  0.18773800  0.27883800  0.06250100  1
  Li  Li33  1  0.94241850  0.93641250  0.31239700  1
  Li  Li34  1  0.37087450  0.43579450  0.12499000  1
  Li  Li35  1  0.31190350  0.43468250  0.93746400  1
  Li  Li36  1  0.25551600  0.43667000  0.75003400  1
  Li  Li37  1  0.18844100  0.43723500  0.56242800  1
  Li  Li38  1  0.12490200  0.43761300  0.37494000  1
  Li  Li39  1  0.05967150  0.10043150  0.18759500  1
  Li  Li40  1  0.06723500  0.43305700  0.18748300  1
  Li  Li41  1  0.94032850  0.10043150  0.81240500  1
  Li  Li42  1  0.31690400  0.59667200  0.43762800  1
  Li  Li43  1  0.00000000  0.43748800  0.00000000  1
  Li  Li44  1  0.93276500  0.43305700  0.81251700  1
  Li  Li45  1  0.18636600  0.59835000  0.06262900  1
  Li  Li46  1  0.06711250  0.59952450  0.68766300  1
  Li  Li47  1  0.06244900  0.27693700  0.68753200  1
  Li  Li48  1  0.93755100  0.27693700  0.31246800  1
  Li  Li49  1  0.93288750  0.59952450  0.31233700  1
  Li  Li50  1  0.81363400  0.59835000  0.93737100  1
  Li  Li51  1  0.81226200  0.27883800  0.93749900  1
  Li  Li52  1  0.19076200  0.77766900  0.56251100  1
  Li  Li53  1  0.87509800  0.43761300  0.62506000  1
  Li  Li54  1  0.06123500  0.77824800  0.18739900  1
  Li  Li55  1  0.93876500  0.77824800  0.81260100  1
  Li  Li56  1  0.81155900  0.43723500  0.43757200  1
  Li  Li57  1  0.80923800  0.77766900  0.43748900  1
  Li  Li58  1  0.74448400  0.43667000  0.24996600  1
  Li  Li59  1  0.68809650  0.43468250  0.06253600  1
  Li  Li60  1  0.62912550  0.43579450  0.87501000  1
  Li  Li61  1  0.05758150  0.93641250  0.68760300  1
  Li  Li62  1  0.00000000  0.93984100  0.50000000  1
  Li  Li63  1  0.68309600  0.59667200  0.56237200  1
  Mn  Mn64  1  0.74983700  0.77101100  0.25008100  1
  Mn  Mn65  1  0.62484700  0.77014000  0.87503100  1
  Mn  Mn66  1  0.50000000  0.77017400  0.50000000  1
  Mn  Mn67  1  0.37515300  0.77014000  0.12496900  1
  Mn  Mn68  1  0.25016300  0.77101100  0.74991900  1
  Mn  Mn69  1  0.24983700  0.27101100  0.25008100  1
  Mn  Mn70  1  0.12484700  0.27014000  0.87503100  1
  Mn  Mn71  1  0.00000000  0.27017400  0.50000000  1
  Mn  Mn72  1  0.87515300  0.27014000  0.12496900  1
  Mn  Mn73  1  0.75016300  0.27101100  0.74991900  1
  Cr  Cr74  1  0.50000000  0.60783200  0.00000000  1
  Cr  Cr75  1  0.87510250  0.10846950  0.62501600  1
  Cr  Cr76  1  0.74371700  0.10437300  0.24993300  1
  Cr  Cr77  1  0.62988200  0.10308700  0.87499700  1
  Cr  Cr78  1  0.50000000  0.10856600  0.50000000  1
  Cr  Cr79  1  0.37011800  0.10308700  0.12500300  1
  Cr  Cr80  1  0.62487050  0.26630250  0.37499400  1
  Cr  Cr81  1  0.50000000  0.26660500  0.00000000  1
  Cr  Cr82  1  0.37512950  0.26630250  0.62500600  1
  Cr  Cr83  1  0.25628300  0.10437300  0.75006700  1
  Cr  Cr84  1  0.12489750  0.10846950  0.37498400  1
  Cr  Cr85  1  0.00000000  0.10783200  0.00000000  1
  Cr  Cr86  1  0.37510250  0.60846950  0.62501600  1
  Cr  Cr87  1  0.24371700  0.60437300  0.24993300  1
  Cr  Cr88  1  0.12988200  0.60308700  0.87499700  1
  Cr  Cr89  1  0.00000000  0.60856600  0.50000000  1
  Cr  Cr90  1  0.87011800  0.60308700  0.12500300  1
  Cr  Cr91  1  0.12487050  0.76630250  0.37499400  1
  Cr  Cr92  1  0.00000000  0.76660500  0.00000000  1
  Cr  Cr93  1  0.87512950  0.76630250  0.62500600  1
  Cr  Cr94  1  0.75628300  0.60437300  0.75006700  1
  Cr  Cr95  1  0.62489750  0.60846950  0.37498400  1
  O  O96  1  0.66296650  0.75591050  0.97177100  1
  O  O97  1  0.69990800  0.76143000  0.15331400  1
  O  O98  1  0.86754050  0.93747650  0.02849900  1
  O  O99  1  0.74137100  0.93769700  0.65332900  1
  O  O100  1  0.88572000  0.93446600  0.22104000  1
  O  O101  1  0.75487950  0.93867350  0.84652400  1
  O  O102  1  0.63192550  0.93751350  0.47158600  1
  O  O103  1  0.62099050  0.93967750  0.27842400  1
  O  O104  1  0.48947600  0.93410300  0.90391300  1
  O  O105  1  0.55020800  0.61682800  0.09708100  1
  O  O106  1  0.51052400  0.93410300  0.09608700  1
  O  O107  1  0.42013100  0.61678000  0.72204500  1
  O  O108  1  0.78656100  0.11918700  0.34651800  1
  O  O109  1  0.57986900  0.61678000  0.27795500  1
  O  O110  1  0.44979200  0.61682800  0.90291900  1
  O  O111  1  0.83560700  0.11674400  0.52831200  1
  O  O112  1  0.53707400  0.75591900  0.59665800  1
  O  O113  1  0.57908550  0.75792950  0.77779300  1
  O  O114  1  0.46292600  0.75591900  0.40334200  1
  O  O115  1  0.66294400  0.11905500  0.97168100  1
  O  O116  1  0.53638450  0.11922150  0.59661300  1
  O  O117  1  0.70291750  0.11717850  0.15300300  1
  O  O118  1  0.57681950  0.11673850  0.77785700  1
  O  O119  1  0.46361550  0.11922150  0.40338700  1
  O  O120  1  0.42091450  0.75792950  0.22220700  1
  O  O121  1  0.30009200  0.76143000  0.84668600  1
  O  O122  1  0.67074250  0.25672750  0.47208700  1
  O  O123  1  0.33703350  0.75591050  0.02822900  1
  O  O124  1  0.71399500  0.25636100  0.65333600  1
  O  O125  1  0.42318050  0.11673850  0.22214300  1
  O  O126  1  0.29708250  0.11717850  0.84699700  1
  O  O127  1  0.33705600  0.11905500  0.02831900  1
  O  O128  1  0.54684150  0.25828850  0.09704500  1
  O  O129  1  0.42540850  0.26199250  0.72168800  1
  O  O130  1  0.28600500  0.25636100  0.34666400  1
  O  O131  1  0.57459150  0.26199250  0.27831200  1
  O  O132  1  0.45315850  0.25828850  0.90295500  1
  O  O133  1  0.36807450  0.93751350  0.52841400  1
  O  O134  1  0.32925750  0.25672750  0.52791300  1
  O  O135  1  0.37900950  0.93967750  0.72157600  1
  O  O136  1  0.25862900  0.93769700  0.34667100  1
  O  O137  1  0.24512050  0.93867350  0.15347600  1
  O  O138  1  0.11428000  0.93446600  0.77896000  1
  O  O139  1  0.49208600  0.43738900  0.40330800  1
  O  O140  1  0.13245950  0.93747650  0.97150100  1
  O  O141  1  0.50791400  0.43738900  0.59669200  1
  O  O142  1  0.16439300  0.11674400  0.47168800  1
  O  O143  1  0.21343900  0.11918700  0.65348200  1
  O  O144  1  0.16296650  0.25591050  0.97177100  1
  O  O145  1  0.19990800  0.26143000  0.15331400  1
  O  O146  1  0.36754050  0.43747650  0.02849900  1
  O  O147  1  0.24137100  0.43769700  0.65332900  1
  O  O148  1  0.38572000  0.43446600  0.22104000  1
  O  O149  1  0.25487950  0.43867350  0.84652400  1
  O  O150  1  0.13192550  0.43751350  0.47158600  1
  O  O151  1  0.12099050  0.43967750  0.27842400  1
  O  O152  1  0.98947600  0.43410300  0.90391300  1
  O  O153  1  0.05020800  0.11682800  0.09708100  1
  O  O154  1  0.01052400  0.43410300  0.09608700  1
  O  O155  1  0.92013100  0.11678000  0.72204500  1
  O  O156  1  0.28656100  0.61918700  0.34651800  1
  O  O157  1  0.07986900  0.11678000  0.27795500  1
  O  O158  1  0.94979200  0.11682800  0.90291900  1
  O  O159  1  0.33560700  0.61674400  0.52831200  1
  O  O160  1  0.03707400  0.25591900  0.59665800  1
  O  O161  1  0.07908550  0.25792950  0.77779300  1
  O  O162  1  0.96292600  0.25591900  0.40334200  1
  O  O163  1  0.16294400  0.61905500  0.97168100  1
  O  O164  1  0.03638450  0.61922150  0.59661300  1
  O  O165  1  0.20291750  0.61717850  0.15300300  1
  O  O166  1  0.07681950  0.61673850  0.77785700  1
  O  O167  1  0.96361550  0.61922150  0.40338700  1
  O  O168  1  0.92091450  0.25792950  0.22220700  1
  O  O169  1  0.80009200  0.26143000  0.84668600  1
  O  O170  1  0.17074250  0.75672750  0.47208700  1
  O  O171  1  0.83703350  0.25591050  0.02822900  1
  O  O172  1  0.21399500  0.75636100  0.65333600  1
  O  O173  1  0.92318050  0.61673850  0.22214300  1
  O  O174  1  0.79708250  0.61717850  0.84699700  1
  O  O175  1  0.83705600  0.61905500  0.02831900  1
  O  O176  1  0.04684150  0.75828850  0.09704500  1
  O  O177  1  0.92540850  0.76199250  0.72168800  1
  O  O178  1  0.78600500  0.75636100  0.34666400  1
  O  O179  1  0.07459150  0.76199250  0.27831200  1
  O  O180  1  0.95315850  0.75828850  0.90295500  1
  O  O181  1  0.86807450  0.43751350  0.52841400  1
  O  O182  1  0.82925750  0.75672750  0.52791300  1
  O  O183  1  0.87900950  0.43967750  0.72157600  1
  O  O184  1  0.75862900  0.43769700  0.34667100  1
  O  O185  1  0.74512050  0.43867350  0.15347600  1
  O  O186  1  0.61428000  0.43446600  0.77896000  1
  O  O187  1  0.99208600  0.93738900  0.40330800  1
  O  O188  1  0.63245950  0.43747650  0.97150100  1
  O  O189  1  0.00791400  0.93738900  0.59669200  1
  O  O190  1  0.66439300  0.61674400  0.47168800  1
  O  O191  1  0.71343900  0.61918700  0.65348200  1
