# generated using pymatgen
data_NiH12(BrO7)2
_symmetry_space_group_name_H-M   'P 1'
_cell_length_a   7.89598757
_cell_length_b   7.89598757
_cell_length_c   5.61153400
_cell_angle_alpha   90.00000000
_cell_angle_beta   90.00000000
_cell_angle_gamma   120.00000000
_symmetry_Int_Tables_number   1
_chemical_formula_structural   NiH12(BrO7)2
_chemical_formula_sum   'Ni1 H12 Br2 O14'
_cell_volume   302.98780033
_cell_formula_units_Z   1
loop_
 _symmetry_equiv_pos_site_id
 _symmetry_equiv_pos_as_xyz
  1  'x, y, z'
loop_
 _atom_site_type_symbol
 _atom_site_label
 _atom_site_symmetry_multiplicity
 _atom_site_fract_x
 _atom_site_fract_y
 _atom_site_fract_z
 _atom_site_occupancy
  Ni  Ni0  1  0.00000000  0.00000000  0.50000000  1
  H  H1  1  0.77432050  0.70818950  0.21968700  1
  H  H2  1  0.29181050  0.06613100  0.21968700  1
  H  H3  1  0.93386900  0.22567950  0.21968700  1
  H  H4  1  0.22567950  0.29181050  0.78031300  1
  H  H5  1  0.70818950  0.93386900  0.78031300  1
  H  H6  1  0.06613100  0.77432050  0.78031300  1
  H  H7  1  0.92021950  0.64720250  0.32566200  1
  H  H8  1  0.35279750  0.27301700  0.32566200  1
  H  H9  1  0.72698300  0.07978050  0.32566200  1
  H  H10  1  0.07978050  0.35279750  0.67433800  1
  H  H11  1  0.64720250  0.72698300  0.67433800  1
  H  H12  1  0.27301700  0.92021950  0.67433800  1
  Br  Br13  1  0.33333333  0.66666667  0.17889400  1
  Br  Br14  1  0.66666667  0.33333333  0.82110600  1
  O  O15  1  0.33333333  0.66666667  0.88565800  1
  O  O16  1  0.66666667  0.33333333  0.11434200  1
  O  O17  1  0.90934650  0.76000350  0.27477600  1
  O  O18  1  0.23999650  0.14934300  0.27477600  1
  O  O19  1  0.85065700  0.09065350  0.27477600  1
  O  O20  1  0.09065350  0.23999650  0.72522400  1
  O  O21  1  0.76000350  0.85065700  0.72522400  1
  O  O22  1  0.14934300  0.90934650  0.72522400  1
  O  O23  1  0.48872450  0.60101150  0.28116600  1
  O  O24  1  0.39898850  0.88771300  0.28116600  1
  O  O25  1  0.11228700  0.51127550  0.28116600  1
  O  O26  1  0.51127550  0.39898850  0.71883400  1
  O  O27  1  0.60101150  0.11228700  0.71883400  1
  O  O28  1  0.88771300  0.48872450  0.71883400  1
