# generated using pymatgen
data_LiFe2O2F3
_symmetry_space_group_name_H-M   'P 1'
_cell_length_a   3.83628600
_cell_length_b   9.93238000
_cell_length_c   10.22395600
_cell_angle_alpha   90.00000000
_cell_angle_beta   90.00000000
_cell_angle_gamma   90.00000000
_symmetry_Int_Tables_number   1
_chemical_formula_structural   LiFe2O2F3
_chemical_formula_sum   'Li4 Fe8 O8 F12'
_cell_volume   389.56799973
_cell_formula_units_Z   4
loop_
 _symmetry_equiv_pos_site_id
 _symmetry_equiv_pos_as_xyz
  1  'x, y, z'
loop_
 _atom_site_type_symbol
 _atom_site_label
 _atom_site_symmetry_multiplicity
 _atom_site_fract_x
 _atom_site_fract_y
 _atom_site_fract_z
 _atom_site_occupancy
  Li  Li0  1  0.00000000  0.18515100  0.75000000  1
  Li  Li1  1  0.50000000  0.31484900  0.25000000  1
  Li  Li2  1  0.50000000  0.68515100  0.75000000  1
  Li  Li3  1  0.00000000  0.81484900  0.25000000  1
  Fe  Fe4  1  0.00000000  0.15235000  0.05729800  1
  Fe  Fe5  1  0.00000000  0.15235000  0.44270200  1
  Fe  Fe6  1  0.50000000  0.34765000  0.55729800  1
  Fe  Fe7  1  0.50000000  0.34765000  0.94270200  1
  Fe  Fe8  1  0.50000000  0.65235000  0.05729800  1
  Fe  Fe9  1  0.50000000  0.65235000  0.44270200  1
  Fe  Fe10  1  0.00000000  0.84765000  0.55729800  1
  Fe  Fe11  1  0.00000000  0.84765000  0.94270200  1
  O  O12  1  0.00000000  0.31278000  0.93637400  1
  O  O13  1  0.00000000  0.31278000  0.56362600  1
  O  O14  1  0.50000000  0.18722000  0.43637400  1
  O  O15  1  0.50000000  0.18722000  0.06362600  1
  O  O16  1  0.50000000  0.81278000  0.93637400  1
  O  O17  1  0.50000000  0.81278000  0.56362600  1
  O  O18  1  0.00000000  0.68722000  0.43637400  1
  O  O19  1  0.00000000  0.68722000  0.06362600  1
  F  F20  1  0.00000000  0.04083500  0.61551500  1
  F  F21  1  0.00000000  0.04083500  0.88448500  1
  F  F22  1  0.00000000  0.23544000  0.25000000  1
  F  F23  1  0.50000000  0.26456000  0.75000000  1
  F  F24  1  0.50000000  0.45916500  0.11551500  1
  F  F25  1  0.50000000  0.45916500  0.38448500  1
  F  F26  1  0.50000000  0.54083500  0.61551500  1
  F  F27  1  0.50000000  0.54083500  0.88448500  1
  F  F28  1  0.50000000  0.73544000  0.25000000  1
  F  F29  1  0.00000000  0.76456000  0.75000000  1
  F  F30  1  0.00000000  0.95916500  0.11551500  1
  F  F31  1  0.00000000  0.95916500  0.38448500  1
