# generated using pymatgen
data_Li4Mn3V2Co3O16
_symmetry_space_group_name_H-M   'P 1'
_cell_length_a   10.14754200
_cell_length_b   5.84626000
_cell_length_c   9.49559132
_cell_angle_alpha   90.00000000
_cell_angle_beta   90.73029484
_cell_angle_gamma   90.00000000
_symmetry_Int_Tables_number   1
_chemical_formula_structural   Li4Mn3V2Co3O16
_chemical_formula_sum   'Li8 Mn6 V4 Co6 O32'
_cell_volume   563.28180011
_cell_formula_units_Z   2
loop_
 _symmetry_equiv_pos_site_id
 _symmetry_equiv_pos_as_xyz
  1  'x, y, z'
loop_
 _atom_site_type_symbol
 _atom_site_label
 _atom_site_symmetry_multiplicity
 _atom_site_fract_x
 _atom_site_fract_y
 _atom_site_fract_z
 _atom_site_occupancy
  Li  Li0  1  0.66899800  0.00000000  0.10267900  1
  Li  Li1  1  0.99693600  0.00000000  0.00083700  1
  Li  Li2  1  0.50250700  0.50000000  0.51162100  1
  Li  Li3  1  0.83478900  0.50000000  0.59916300  1
  Li  Li4  1  0.16899800  0.50000000  0.10267900  1
  Li  Li5  1  0.49693600  0.50000000  0.00083700  1
  Li  Li6  1  0.00250700  0.00000000  0.51162100  1
  Li  Li7  1  0.33478900  0.00000000  0.59916300  1
  Mn  Mn8  1  0.82381200  0.00000000  0.78222800  1
  Mn  Mn9  1  0.91625800  0.25367600  0.28416900  1
  Mn  Mn10  1  0.91625800  0.74632400  0.28416900  1
  Mn  Mn11  1  0.32381200  0.50000000  0.78222800  1
  Mn  Mn12  1  0.41625800  0.75367600  0.28416900  1
  Mn  Mn13  1  0.41625800  0.24632400  0.28416900  1
  V  V14  1  0.65965000  0.00000000  0.51686500  1
  V  V15  1  0.82739100  0.50000000  0.00323100  1
  V  V16  1  0.15965000  0.50000000  0.51686500  1
  V  V17  1  0.32739100  0.00000000  0.00323100  1
  Co  Co18  1  0.58321400  0.75777200  0.78706700  1
  Co  Co19  1  0.58321400  0.24222800  0.78706700  1
  Co  Co20  1  0.66975100  0.50000000  0.28932900  1
  Co  Co21  1  0.08321400  0.25777200  0.78706700  1
  Co  Co22  1  0.08321400  0.74222800  0.78706700  1
  Co  Co23  1  0.16975100  0.00000000  0.28932900  1
  O  O24  1  0.58182000  0.74880500  0.40015700  1
  O  O25  1  0.52259000  0.00000000  0.63642000  1
  O  O26  1  0.67051000  0.00000000  0.89366600  1
  O  O27  1  0.99294500  0.00000000  0.70103900  1
  O  O28  1  0.50238500  0.50000000  0.19167900  1
  O  O29  1  0.58182000  0.25119500  0.40015700  1
  O  O30  1  0.75017600  0.78498000  0.65287900  1
  O  O31  1  0.75017600  0.21502000  0.65287900  1
  O  O32  1  0.67144000  0.50000000  0.92043900  1
  O  O33  1  0.83934900  0.00000000  0.39600200  1
  O  O34  1  0.76524550  0.27703650  0.15997300  1
  O  O35  1  0.76524550  0.72296350  0.15997300  1
  O  O36  1  0.83526300  0.50000000  0.38811000  1
  O  O37  1  0.90344900  0.25663700  0.91316600  1
  O  O38  1  0.98086600  0.50000000  0.16436600  1
  O  O39  1  0.90344900  0.74336300  0.91316600  1
  O  O40  1  0.08182000  0.24880500  0.40015700  1
  O  O41  1  0.02259000  0.50000000  0.63642000  1
  O  O42  1  0.17051000  0.50000000  0.89366600  1
  O  O43  1  0.49294500  0.50000000  0.70103900  1
  O  O44  1  0.00238500  0.00000000  0.19167900  1
  O  O45  1  0.08182000  0.75119500  0.40015700  1
  O  O46  1  0.25017600  0.28498000  0.65287900  1
  O  O47  1  0.25017600  0.71502000  0.65287900  1
  O  O48  1  0.17144000  0.00000000  0.92043900  1
  O  O49  1  0.33934900  0.50000000  0.39600200  1
  O  O50  1  0.26524550  0.77703650  0.15997300  1
  O  O51  1  0.26524550  0.22296350  0.15997300  1
  O  O52  1  0.33526300  0.00000000  0.38811000  1
  O  O53  1  0.40344900  0.75663700  0.91316600  1
  O  O54  1  0.48086600  0.00000000  0.16436600  1
  O  O55  1  0.40344900  0.24336300  0.91316600  1
