# generated using pymatgen
data_NaLi2V3O9
_symmetry_space_group_name_H-M   'P 1'
_cell_length_a   18.23363600
_cell_length_b   9.03843400
_cell_length_c   10.06577082
_cell_angle_alpha   90.00000000
_cell_angle_beta   108.82622065
_cell_angle_gamma   90.00000000
_symmetry_Int_Tables_number   1
_chemical_formula_structural   NaLi2V3O9
_chemical_formula_sum   'Na8 Li16 V24 O72'
_cell_volume   1570.12742494
_cell_formula_units_Z   8
loop_
 _symmetry_equiv_pos_site_id
 _symmetry_equiv_pos_as_xyz
  1  'x, y, z'
loop_
 _atom_site_type_symbol
 _atom_site_label
 _atom_site_symmetry_multiplicity
 _atom_site_fract_x
 _atom_site_fract_y
 _atom_site_fract_z
 _atom_site_occupancy
  Na  Na0  1  0.33438550  0.87215350  0.83343900  1
  Na  Na1  1  0.00000000  0.79469500  0.00000000  1
  Na  Na2  1  0.16561450  0.37215350  0.16656100  1
  Na  Na3  1  0.00000000  0.87212300  0.50000000  1
  Na  Na4  1  0.83438550  0.37215350  0.83343900  1
  Na  Na5  1  0.50000000  0.29469500  0.00000000  1
  Na  Na6  1  0.66561450  0.87215350  0.16656100  1
  Na  Na7  1  0.50000000  0.37212300  0.50000000  1
  Li  Li8  1  0.16537600  0.66624600  0.66399800  1
  Li  Li9  1  0.16847150  0.31529150  0.66540100  1
  Li  Li10  1  0.33427900  0.49706600  0.83569700  1
  Li  Li11  1  0.00000000  0.16609800  0.00000000  1
  Li  Li12  1  0.16572100  0.99706600  0.16430300  1
  Li  Li13  1  0.33152850  0.81529150  0.33459900  1
  Li  Li14  1  0.33462400  0.16624600  0.33600200  1
  Li  Li15  1  0.00000000  0.49494400  0.50000000  1
  Li  Li16  1  0.66537600  0.16624600  0.66399800  1
  Li  Li17  1  0.66847150  0.81529150  0.66540100  1
  Li  Li18  1  0.83427900  0.99706600  0.83569700  1
  Li  Li19  1  0.50000000  0.66609800  0.00000000  1
  Li  Li20  1  0.66572100  0.49706600  0.16430300  1
  Li  Li21  1  0.83152850  0.31529150  0.33459900  1
  Li  Li22  1  0.83462400  0.66624600  0.33600200  1
  Li  Li23  1  0.50000000  0.99494400  0.50000000  1
  V  V24  1  0.09624550  0.99196850  0.80511200  1
  V  V25  1  0.23757050  0.67691150  0.02626500  1
  V  V26  1  0.26242950  0.17691150  0.97373500  1
  V  V27  1  0.09522450  0.67531150  0.30891700  1
  V  V28  1  0.23809550  0.98862150  0.52326300  1
  V  V29  1  0.26190450  0.48862150  0.47673700  1
  V  V30  1  0.40477550  0.17531150  0.69108300  1
  V  V31  1  0.42830150  0.67695750  0.63669400  1
  V  V32  1  0.07229350  0.48597350  0.85574100  1
  V  V33  1  0.40375450  0.49196850  0.19488800  1
  V  V34  1  0.42770650  0.98597350  0.14425900  1
  V  V35  1  0.07169850  0.17695750  0.36330600  1
  V  V36  1  0.59624550  0.49196850  0.80511200  1
  V  V37  1  0.73757050  0.17691150  0.02626500  1
  V  V38  1  0.76242950  0.67691150  0.97373500  1
  V  V39  1  0.59522450  0.17531150  0.30891700  1
  V  V40  1  0.73809550  0.48862150  0.52326300  1
  V  V41  1  0.76190450  0.98862150  0.47673700  1
  V  V42  1  0.90477550  0.67531150  0.69108300  1
  V  V43  1  0.92830150  0.17695750  0.63669400  1
  V  V44  1  0.57229350  0.98597350  0.85574100  1
  V  V45  1  0.90375450  0.99196850  0.19488800  1
  V  V46  1  0.92770650  0.48597350  0.14425900  1
  V  V47  1  0.57169850  0.67695750  0.36330600  1
  O  O48  1  0.14664050  0.57651850  0.99843100  1
  O  O49  1  0.23025850  0.84812150  0.08386600  1
  O  O50  1  0.10296350  0.81972850  0.75007600  1
  O  O51  1  0.09935600  0.47097800  0.71000500  1
  O  O52  1  0.18618250  0.09388850  0.82682600  1
  O  O53  1  0.26974150  0.34812150  0.91613400  1
  O  O54  1  0.26144400  0.68122100  0.87765300  1
  O  O55  1  0.35335950  0.07651850  0.00156900  1
  O  O56  1  0.42721400  0.48837000  0.04304900  1
  O  O57  1  0.14949600  0.09421700  0.50203200  1
  O  O58  1  0.23580200  0.47614000  0.62134300  1
  O  O59  1  0.22866200  0.82002800  0.58317900  1
  O  O60  1  0.31433900  0.07489200  0.66538000  1
  O  O61  1  0.40548100  0.68024500  0.78628500  1
  O  O62  1  0.10199400  0.84648400  0.25213600  1
  O  O63  1  0.39800600  0.34648400  0.74786400  1
  O  O64  1  0.09451900  0.18024500  0.21371500  1
  O  O65  1  0.48158350  0.08682650  0.82891100  1
  O  O66  1  0.18566100  0.57489200  0.33462000  1
  O  O67  1  0.07278600  0.98837000  0.95695100  1
  O  O68  1  0.27133800  0.32002800  0.41682100  1
  O  O69  1  0.06431050  0.31855950  0.91944600  1
  O  O70  1  0.26419800  0.97614000  0.37865700  1
  O  O71  1  0.35050400  0.59421700  0.49796800  1
  O  O72  1  0.43681800  0.84837600  0.58120800  1
  O  O73  1  0.42685750  0.18012650  0.53906100  1
  O  O74  1  0.01871400  0.07552900  0.66288500  1
  O  O75  1  0.23855600  0.18122100  0.12234700  1
  O  O76  1  0.31381750  0.59388850  0.17317400  1
  O  O77  1  0.40064400  0.97097800  0.28999500  1
  O  O78  1  0.39703650  0.31972850  0.24992400  1
  O  O79  1  0.48128600  0.57552900  0.33711500  1
  O  O80  1  0.07314250  0.68012650  0.46093900  1
  O  O81  1  0.06318200  0.34837600  0.41879200  1
  O  O82  1  0.43568950  0.81855950  0.08055400  1
  O  O83  1  0.01841650  0.58682650  0.17108900  1
  O  O84  1  0.64664050  0.07651850  0.99843100  1
  O  O85  1  0.73025850  0.34812150  0.08386600  1
  O  O86  1  0.60296350  0.31972850  0.75007600  1
  O  O87  1  0.59935600  0.97097800  0.71000500  1
  O  O88  1  0.68618250  0.59388850  0.82682600  1
  O  O89  1  0.76974150  0.84812150  0.91613400  1
  O  O90  1  0.76144400  0.18122100  0.87765300  1
  O  O91  1  0.85335950  0.57651850  0.00156900  1
  O  O92  1  0.92721400  0.98837000  0.04304900  1
  O  O93  1  0.64949600  0.59421700  0.50203200  1
  O  O94  1  0.73580200  0.97614000  0.62134300  1
  O  O95  1  0.72866200  0.32002800  0.58317900  1
  O  O96  1  0.81433900  0.57489200  0.66538000  1
  O  O97  1  0.90548100  0.18024500  0.78628500  1
  O  O98  1  0.60199400  0.34648400  0.25213600  1
  O  O99  1  0.89800600  0.84648400  0.74786400  1
  O  O100  1  0.59451900  0.68024500  0.21371500  1
  O  O101  1  0.98158350  0.58682650  0.82891100  1
  O  O102  1  0.68566100  0.07489200  0.33462000  1
  O  O103  1  0.57278600  0.48837000  0.95695100  1
  O  O104  1  0.77133800  0.82002800  0.41682100  1
  O  O105  1  0.56431050  0.81855950  0.91944600  1
  O  O106  1  0.76419800  0.47614000  0.37865700  1
  O  O107  1  0.85050400  0.09421700  0.49796800  1
  O  O108  1  0.93681800  0.34837600  0.58120800  1
  O  O109  1  0.92685750  0.68012650  0.53906100  1
  O  O110  1  0.51871400  0.57552900  0.66288500  1
  O  O111  1  0.73855600  0.68122100  0.12234700  1
  O  O112  1  0.81381750  0.09388850  0.17317400  1
  O  O113  1  0.90064400  0.47097800  0.28999500  1
  O  O114  1  0.89703650  0.81972850  0.24992400  1
  O  O115  1  0.98128600  0.07552900  0.33711500  1
  O  O116  1  0.57314250  0.18012650  0.46093900  1
  O  O117  1  0.56318200  0.84837600  0.41879200  1
  O  O118  1  0.93568950  0.31855950  0.08055400  1
  O  O119  1  0.51841650  0.08682650  0.17108900  1
