# generated using pymatgen
data_Li3MnV(PO4)3
_symmetry_space_group_name_H-M   'P 1'
_cell_length_a   15.07374200
_cell_length_b   8.63229400
_cell_length_c   8.79068914
_cell_angle_alpha   90.00000000
_cell_angle_beta   123.78494326
_cell_angle_gamma   90.00000000
_symmetry_Int_Tables_number   1
_chemical_formula_structural   Li3MnV(PO4)3
_chemical_formula_sum   'Li12 Mn4 V4 P12 O48'
_cell_volume   950.69128152
_cell_formula_units_Z   4
loop_
 _symmetry_equiv_pos_site_id
 _symmetry_equiv_pos_as_xyz
  1  'x, y, z'
loop_
 _atom_site_type_symbol
 _atom_site_label
 _atom_site_symmetry_multiplicity
 _atom_site_fract_x
 _atom_site_fract_y
 _atom_site_fract_z
 _atom_site_occupancy
  Li  Li0  1  0.18520300  0.92431000  0.70668600  1
  Li  Li1  1  0.30781750  0.34403750  0.67693500  1
  Li  Li2  1  0.18520300  0.07569000  0.20668600  1
  Li  Li3  1  0.00664100  0.63088900  0.74552900  1
  Li  Li4  1  0.00664100  0.36911100  0.24552900  1
  Li  Li5  1  0.30781750  0.65596250  0.17693500  1
  Li  Li6  1  0.68520300  0.42431000  0.70668600  1
  Li  Li7  1  0.80781750  0.84403750  0.67693500  1
  Li  Li8  1  0.68520300  0.57569000  0.20668600  1
  Li  Li9  1  0.50664100  0.13088900  0.74552900  1
  Li  Li10  1  0.50664100  0.86911100  0.24552900  1
  Li  Li11  1  0.80781750  0.15596250  0.17693500  1
  Mn  Mn12  1  0.39454600  0.75344400  0.85589400  1
  Mn  Mn13  1  0.39454600  0.24655600  0.35589400  1
  Mn  Mn14  1  0.89454600  0.25344400  0.85589400  1
  Mn  Mn15  1  0.89454600  0.74655600  0.35589400  1
  V  V16  1  0.10247850  0.25493150  0.64059500  1
  V  V17  1  0.10247850  0.74506850  0.14059500  1
  V  V18  1  0.60247850  0.75493150  0.64059500  1
  V  V19  1  0.60247850  0.24506850  0.14059500  1
  P  P20  1  0.36038000  0.10888700  0.95429100  1
  P  P21  1  0.36038000  0.89111300  0.45429100  1
  P  P22  1  0.00118350  0.04441150  0.25807700  1
  P  P23  1  0.13816200  0.61233800  0.53887100  1
  P  P24  1  0.00118350  0.95558850  0.75807700  1
  P  P25  1  0.13816200  0.38766200  0.03887100  1
  P  P26  1  0.86038000  0.60888700  0.95429100  1
  P  P27  1  0.86038000  0.39111300  0.45429100  1
  P  P28  1  0.50118350  0.54441150  0.25807700  1
  P  P29  1  0.63816200  0.11233800  0.53887100  1
  P  P30  1  0.50118350  0.45558850  0.75807700  1
  P  P31  1  0.63816200  0.88766200  0.03887100  1
  O  O32  1  0.33847250  0.93059650  0.91291700  1
  O  O33  1  0.45400950  0.16683650  0.94298000  1
  O  O34  1  0.38144900  0.87098400  0.64225700  1
  O  O35  1  0.45400950  0.83316350  0.44298000  1
  O  O36  1  0.25974450  0.19050350  0.79377100  1
  O  O37  1  0.41654300  0.65671300  0.10994000  1
  O  O38  1  0.25974450  0.80949650  0.29377100  1
  O  O39  1  0.43666350  0.55751550  0.80927300  1
  O  O40  1  0.06303600  0.04799200  0.69496200  1
  O  O41  1  0.33847250  0.06940350  0.41291700  1
  O  O42  1  0.41654300  0.34328700  0.60994000  1
  O  O43  1  0.10866750  0.37055950  0.84170600  1
  O  O44  1  0.38144900  0.12901600  0.14225700  1
  O  O45  1  0.08865450  0.14149550  0.42328100  1
  O  O46  1  0.16508750  0.43726250  0.58474200  1
  O  O47  1  0.43666350  0.44248450  0.30927300  1
  O  O48  1  0.06303600  0.95200800  0.19496200  1
  O  O49  1  0.23259600  0.71313200  0.68026700  1
  O  O50  1  0.08865450  0.85850450  0.92328100  1
  O  O51  1  0.23259600  0.28686800  0.18026700  1
  O  O52  1  0.04315600  0.66233200  0.55148400  1
  O  O53  1  0.10866750  0.62944050  0.34170600  1
  O  O54  1  0.04315600  0.33766800  0.05148400  1
  O  O55  1  0.16508750  0.56273750  0.08474200  1
  O  O56  1  0.83847250  0.43059650  0.91291700  1
  O  O57  1  0.95400950  0.66683650  0.94298000  1
  O  O58  1  0.88144900  0.37098400  0.64225700  1
  O  O59  1  0.95400950  0.33316350  0.44298000  1
  O  O60  1  0.75974450  0.69050350  0.79377100  1
  O  O61  1  0.91654300  0.15671300  0.10994000  1
  O  O62  1  0.75974450  0.30949650  0.29377100  1
  O  O63  1  0.93666350  0.05751550  0.80927300  1
  O  O64  1  0.56303600  0.54799200  0.69496200  1
  O  O65  1  0.83847250  0.56940350  0.41291700  1
  O  O66  1  0.91654300  0.84328700  0.60994000  1
  O  O67  1  0.60866750  0.87055950  0.84170600  1
  O  O68  1  0.88144900  0.62901600  0.14225700  1
  O  O69  1  0.58865450  0.64149550  0.42328100  1
  O  O70  1  0.66508750  0.93726250  0.58474200  1
  O  O71  1  0.93666350  0.94248450  0.30927300  1
  O  O72  1  0.56303600  0.45200800  0.19496200  1
  O  O73  1  0.73259600  0.21313200  0.68026700  1
  O  O74  1  0.58865450  0.35850450  0.92328100  1
  O  O75  1  0.73259600  0.78686800  0.18026700  1
  O  O76  1  0.54315600  0.16233200  0.55148400  1
  O  O77  1  0.60866750  0.12944050  0.34170600  1
  O  O78  1  0.54315600  0.83766800  0.05148400  1
  O  O79  1  0.66508750  0.06273750  0.08474200  1
