# generated using pymatgen
data_Li7Mn8O20
_symmetry_space_group_name_H-M   'P 1'
_cell_length_a   10.11687200
_cell_length_b   5.82089000
_cell_length_c   24.11983409
_cell_angle_alpha   90.00000000
_cell_angle_beta   97.64083092
_cell_angle_gamma   90.00000000
_symmetry_Int_Tables_number   1
_chemical_formula_structural   Li7Mn8O20
_chemical_formula_sum   'Li28 Mn32 O80'
_cell_volume   1407.78605364
_cell_formula_units_Z   4
loop_
 _symmetry_equiv_pos_site_id
 _symmetry_equiv_pos_as_xyz
  1  'x, y, z'
loop_
 _atom_site_type_symbol
 _atom_site_label
 _atom_site_symmetry_multiplicity
 _atom_site_fract_x
 _atom_site_fract_y
 _atom_site_fract_z
 _atom_site_occupancy
  Li  Li0  1  0.57203200  0.50000000  0.72346900  1
  Li  Li1  1  0.62340100  0.50000000  0.87257500  1
  Li  Li2  1  0.73090500  0.00000000  0.67366100  1
  Li  Li3  1  0.97958800  0.50000000  0.93156000  1
  Li  Li4  1  0.70091700  0.50000000  0.09932100  1
  Li  Li5  1  0.79908300  0.00000000  0.90067900  1
  Li  Li6  1  0.52041200  0.00000000  0.06844000  1
  Li  Li7  1  0.87659900  0.00000000  0.12742500  1
  Li  Li8  1  0.92796800  0.00000000  0.27653100  1
  Li  Li9  1  0.80284500  0.00000000  0.40013600  1
  Li  Li10  1  0.66778700  0.00000000  0.52381900  1
  Li  Li11  1  0.76909500  0.50000000  0.32633900  1
  Li  Li12  1  0.83221300  0.50000000  0.47618100  1
  Li  Li13  1  0.69715500  0.50000000  0.59986400  1
  Li  Li14  1  0.07203200  0.00000000  0.72346900  1
  Li  Li15  1  0.12340100  0.00000000  0.87257500  1
  Li  Li16  1  0.23090500  0.50000000  0.67366100  1
  Li  Li17  1  0.47958800  0.00000000  0.93156000  1
  Li  Li18  1  0.20091700  0.00000000  0.09932100  1
  Li  Li19  1  0.29908300  0.50000000  0.90067900  1
  Li  Li20  1  0.02041200  0.50000000  0.06844000  1
  Li  Li21  1  0.37659900  0.50000000  0.12742500  1
  Li  Li22  1  0.42796800  0.50000000  0.27653100  1
  Li  Li23  1  0.30284500  0.50000000  0.40013600  1
  Li  Li24  1  0.16778700  0.50000000  0.52381900  1
  Li  Li25  1  0.26909500  0.00000000  0.32633900  1
  Li  Li26  1  0.33221300  0.00000000  0.47618100  1
  Li  Li27  1  0.19715500  0.00000000  0.59986400  1
  Mn  Mn28  1  0.90039200  0.50000000  0.69816400  1
  Mn  Mn29  1  0.84983950  0.24647650  0.80026300  1
  Mn  Mn30  1  0.60295300  0.00000000  0.80035800  1
  Mn  Mn31  1  0.84983950  0.75352350  0.80026300  1
  Mn  Mn32  1  0.75000000  0.75000000  0.00000000  1
  Mn  Mn33  1  0.65016050  0.74647650  0.19973700  1
  Mn  Mn34  1  0.75000000  0.25000000  0.00000000  1
  Mn  Mn35  1  0.89704700  0.50000000  0.19964200  1
  Mn  Mn36  1  0.00000000  0.00000000  0.00000000  1
  Mn  Mn37  1  0.59960800  0.00000000  0.30183600  1
  Mn  Mn38  1  0.65016050  0.25352350  0.19973700  1
  Mn  Mn39  1  0.55205500  0.25006100  0.40075900  1
  Mn  Mn40  1  0.94794500  0.75006100  0.59924100  1
  Mn  Mn41  1  0.00000000  0.00000000  0.50000000  1
  Mn  Mn42  1  0.55205500  0.74993900  0.40075900  1
  Mn  Mn43  1  0.94794500  0.24993900  0.59924100  1
  Mn  Mn44  1  0.40039200  0.00000000  0.69816400  1
  Mn  Mn45  1  0.34983950  0.74647650  0.80026300  1
  Mn  Mn46  1  0.10295300  0.50000000  0.80035800  1
  Mn  Mn47  1  0.34983950  0.25352350  0.80026300  1
  Mn  Mn48  1  0.25000000  0.25000000  0.00000000  1
  Mn  Mn49  1  0.15016050  0.24647650  0.19973700  1
  Mn  Mn50  1  0.25000000  0.75000000  0.00000000  1
  Mn  Mn51  1  0.39704700  0.00000000  0.19964200  1
  Mn  Mn52  1  0.50000000  0.50000000  0.00000000  1
  Mn  Mn53  1  0.09960800  0.50000000  0.30183600  1
  Mn  Mn54  1  0.15016050  0.75352350  0.19973700  1
  Mn  Mn55  1  0.05205500  0.75006100  0.40075900  1
  Mn  Mn56  1  0.44794500  0.25006100  0.59924100  1
  Mn  Mn57  1  0.50000000  0.50000000  0.50000000  1
  Mn  Mn58  1  0.05205500  0.24993900  0.40075900  1
  Mn  Mn59  1  0.44794500  0.74993900  0.59924100  1
  O  O60  1  0.93440500  0.00000000  0.84142000  1
  O  O61  1  0.70416500  0.22988700  0.84141300  1
  O  O62  1  0.99349400  0.27753100  0.75295100  1
  O  O63  1  0.77082000  0.50000000  0.75146800  1
  O  O64  1  0.89740350  0.22935350  0.95740800  1
  O  O65  1  0.99349400  0.72246900  0.75295100  1
  O  O66  1  0.94752700  0.50000000  0.84212500  1
  O  O67  1  0.75377200  0.00000000  0.75700200  1
  O  O68  1  0.70416500  0.77011300  0.84141300  1
  O  O69  1  0.65338700  0.50000000  0.95614300  1
  O  O70  1  0.83396200  0.50000000  0.04200400  1
  O  O71  1  0.60259650  0.72935350  0.04259200  1
  O  O72  1  0.66603800  0.00000000  0.95799600  1
  O  O73  1  0.89740350  0.77064650  0.95740800  1
  O  O74  1  0.79583500  0.72988700  0.15858700  1
  O  O75  1  0.84661300  0.00000000  0.04385700  1
  O  O76  1  0.55247300  0.00000000  0.15787500  1
  O  O77  1  0.60259650  0.27064650  0.04259200  1
  O  O78  1  0.72918000  0.00000000  0.24853200  1
  O  O79  1  0.50650600  0.22246900  0.24704900  1
  O  O80  1  0.96728600  0.50000000  0.35330800  1
  O  O81  1  0.56559500  0.50000000  0.15858000  1
  O  O82  1  0.79583500  0.27011300  0.15858700  1
  O  O83  1  0.68267550  0.77182550  0.34936600  1
  O  O84  1  0.74622800  0.50000000  0.24299800  1
  O  O85  1  0.68267550  0.22817450  0.34936600  1
  O  O86  1  0.63830400  0.00000000  0.44172700  1
  O  O87  1  0.50650600  0.77753100  0.24704900  1
  O  O88  1  0.96862300  0.00000000  0.35844700  1
  O  O89  1  0.92123900  0.76790800  0.45005100  1
  O  O90  1  0.63726600  0.50000000  0.44820900  1
  O  O91  1  0.92123900  0.23209200  0.45005100  1
  O  O92  1  0.57876100  0.26790800  0.54994900  1
  O  O93  1  0.86273400  0.00000000  0.55179100  1
  O  O94  1  0.57876100  0.73209200  0.54994900  1
  O  O95  1  0.53137700  0.50000000  0.64155300  1
  O  O96  1  0.86169600  0.50000000  0.55827300  1
  O  O97  1  0.81732450  0.27182550  0.65063400  1
  O  O98  1  0.53271400  0.00000000  0.64669200  1
  O  O99  1  0.81732450  0.72817450  0.65063400  1
  O  O100  1  0.43440500  0.50000000  0.84142000  1
  O  O101  1  0.20416500  0.72988700  0.84141300  1
  O  O102  1  0.49349400  0.77753100  0.75295100  1
  O  O103  1  0.27082000  0.00000000  0.75146800  1
  O  O104  1  0.39740350  0.72935350  0.95740800  1
  O  O105  1  0.49349400  0.22246900  0.75295100  1
  O  O106  1  0.44752700  0.00000000  0.84212500  1
  O  O107  1  0.25377200  0.50000000  0.75700200  1
  O  O108  1  0.20416500  0.27011300  0.84141300  1
  O  O109  1  0.15338700  0.00000000  0.95614300  1
  O  O110  1  0.33396200  0.00000000  0.04200400  1
  O  O111  1  0.10259650  0.22935350  0.04259200  1
  O  O112  1  0.16603800  0.50000000  0.95799600  1
  O  O113  1  0.39740350  0.27064650  0.95740800  1
  O  O114  1  0.29583500  0.22988700  0.15858700  1
  O  O115  1  0.34661300  0.50000000  0.04385700  1
  O  O116  1  0.05247300  0.50000000  0.15787500  1
  O  O117  1  0.10259650  0.77064650  0.04259200  1
  O  O118  1  0.22918000  0.50000000  0.24853200  1
  O  O119  1  0.00650600  0.72246900  0.24704900  1
  O  O120  1  0.46728600  0.00000000  0.35330800  1
  O  O121  1  0.06559500  0.00000000  0.15858000  1
  O  O122  1  0.29583500  0.77011300  0.15858700  1
  O  O123  1  0.18267550  0.27182550  0.34936600  1
  O  O124  1  0.24622800  0.00000000  0.24299800  1
  O  O125  1  0.18267550  0.72817450  0.34936600  1
  O  O126  1  0.13830400  0.50000000  0.44172700  1
  O  O127  1  0.00650600  0.27753100  0.24704900  1
  O  O128  1  0.46862300  0.50000000  0.35844700  1
  O  O129  1  0.42123900  0.26790800  0.45005100  1
  O  O130  1  0.13726600  0.00000000  0.44820900  1
  O  O131  1  0.42123900  0.73209200  0.45005100  1
  O  O132  1  0.07876100  0.76790800  0.54994900  1
  O  O133  1  0.36273400  0.50000000  0.55179100  1
  O  O134  1  0.07876100  0.23209200  0.54994900  1
  O  O135  1  0.03137700  0.00000000  0.64155300  1
  O  O136  1  0.36169600  0.00000000  0.55827300  1
  O  O137  1  0.31732450  0.77182550  0.65063400  1
  O  O138  1  0.03271400  0.50000000  0.64669200  1
  O  O139  1  0.31732450  0.22817450  0.65063400  1
