# generated using pymatgen
data_Li4Fe5Co3O16
_symmetry_space_group_name_H-M   'P 1'
_cell_length_a   10.16331000
_cell_length_b   5.86554800
_cell_length_c   9.56054289
_cell_angle_alpha   90.00000000
_cell_angle_beta   90.69576171
_cell_angle_gamma   90.00000000
_symmetry_Int_Tables_number   1
_chemical_formula_structural   Li4Fe5Co3O16
_chemical_formula_sum   'Li8 Fe10 Co6 O32'
_cell_volume   569.89428071
_cell_formula_units_Z   2
loop_
 _symmetry_equiv_pos_site_id
 _symmetry_equiv_pos_as_xyz
  1  'x, y, z'
loop_
 _atom_site_type_symbol
 _atom_site_label
 _atom_site_symmetry_multiplicity
 _atom_site_fract_x
 _atom_site_fract_y
 _atom_site_fract_z
 _atom_site_occupancy
  Li  Li0  1  0.66196100  0.00000000  0.89805100  1
  Li  Li1  1  0.50501900  0.50000000  0.99759300  1
  Li  Li2  1  0.50595200  0.50000000  0.49537500  1
  Li  Li3  1  0.82905700  0.50000000  0.39037900  1
  Li  Li4  1  0.16196100  0.50000000  0.89805100  1
  Li  Li5  1  0.00501900  0.00000000  0.99759300  1
  Li  Li6  1  0.00595200  0.00000000  0.49537500  1
  Li  Li7  1  0.32905700  0.00000000  0.39037900  1
  Fe  Fe8  1  0.66932900  0.00000000  0.48967400  1
  Fe  Fe9  1  0.82917500  0.00000000  0.21440800  1
  Fe  Fe10  1  0.83461000  0.50000000  0.98836100  1
  Fe  Fe11  1  0.91417850  0.74466450  0.71672000  1
  Fe  Fe12  1  0.91417850  0.25533550  0.71672000  1
  Fe  Fe13  1  0.16932900  0.50000000  0.48967400  1
  Fe  Fe14  1  0.32917500  0.50000000  0.21440800  1
  Fe  Fe15  1  0.33461000  0.00000000  0.98836100  1
  Fe  Fe16  1  0.41417850  0.24466450  0.71672000  1
  Fe  Fe17  1  0.41417850  0.75533550  0.71672000  1
  Co  Co18  1  0.58373400  0.24519500  0.21225300  1
  Co  Co19  1  0.58373400  0.75480500  0.21225300  1
  Co  Co20  1  0.67021100  0.50000000  0.71423400  1
  Co  Co21  1  0.08373400  0.74519500  0.21225300  1
  Co  Co22  1  0.08373400  0.25480500  0.21225300  1
  Co  Co23  1  0.17021100  0.00000000  0.71423400  1
  O  O24  1  0.58527950  0.25420550  0.60038500  1
  O  O25  1  0.52005200  0.00000000  0.32379400  1
  O  O26  1  0.65691700  0.00000000  0.10715500  1
  O  O27  1  0.50908400  0.50000000  0.30709200  1
  O  O28  1  0.50610200  0.50000000  0.80809800  1
  O  O29  1  0.58527950  0.74579450  0.60038500  1
  O  O30  1  0.73296250  0.22606850  0.33165800  1
  O  O31  1  0.73296250  0.77393150  0.33165800  1
  O  O32  1  0.65906500  0.50000000  0.11194700  1
  O  O33  1  0.83925000  0.00000000  0.59625200  1
  O  O34  1  0.75572800  0.72013000  0.84370200  1
  O  O35  1  0.75572800  0.27987000  0.84370200  1
  O  O36  1  0.82827900  0.50000000  0.60603600  1
  O  O37  1  0.92436300  0.75412400  0.10431500  1
  O  O38  1  0.97971600  0.50000000  0.84306700  1
  O  O39  1  0.92436300  0.24587600  0.10431500  1
  O  O40  1  0.08527950  0.75420550  0.60038500  1
  O  O41  1  0.02005200  0.50000000  0.32379400  1
  O  O42  1  0.15691700  0.50000000  0.10715500  1
  O  O43  1  0.00908400  0.00000000  0.30709200  1
  O  O44  1  0.00610200  0.00000000  0.80809800  1
  O  O45  1  0.08527950  0.24579450  0.60038500  1
  O  O46  1  0.23296250  0.72606850  0.33165800  1
  O  O47  1  0.23296250  0.27393150  0.33165800  1
  O  O48  1  0.15906500  0.00000000  0.11194700  1
  O  O49  1  0.33925000  0.50000000  0.59625200  1
  O  O50  1  0.25572800  0.22013000  0.84370200  1
  O  O51  1  0.25572800  0.77987000  0.84370200  1
  O  O52  1  0.32827900  0.00000000  0.60603600  1
  O  O53  1  0.42436300  0.25412400  0.10431500  1
  O  O54  1  0.47971600  0.00000000  0.84306700  1
  O  O55  1  0.42436300  0.74587600  0.10431500  1
