# generated using pymatgen
data_V2Ge2O7
_symmetry_space_group_name_H-M   'P 1'
_cell_length_a   7.41485296
_cell_length_b   8.38227500
_cell_length_c   10.08593070
_cell_angle_alpha   90.00000000
_cell_angle_beta   110.15075349
_cell_angle_gamma   90.00000000
_symmetry_Int_Tables_number   1
_chemical_formula_structural   V2Ge2O7
_chemical_formula_sum   'V8 Ge8 O28'
_cell_volume   588.50293735
_cell_formula_units_Z   4
loop_
 _symmetry_equiv_pos_site_id
 _symmetry_equiv_pos_as_xyz
  1  'x, y, z'
loop_
 _atom_site_type_symbol
 _atom_site_label
 _atom_site_symmetry_multiplicity
 _atom_site_fract_x
 _atom_site_fract_y
 _atom_site_fract_z
 _atom_site_occupancy
  V  V0  1  0.05284400  0.32593700  0.97883900  1
  V  V1  1  0.94715600  0.32593700  0.52116100  1
  V  V2  1  0.55284400  0.17406300  0.47883900  1
  V  V3  1  0.44715600  0.17406300  0.02116100  1
  V  V4  1  0.55284400  0.82593700  0.97883900  1
  V  V5  1  0.44715600  0.82593700  0.52116100  1
  V  V6  1  0.05284400  0.67406300  0.47883900  1
  V  V7  1  0.94715600  0.67406300  0.02116100  1
  Ge  Ge8  1  0.30659650  0.50094650  0.29384900  1
  Ge  Ge9  1  0.30659650  0.49905350  0.79384900  1
  Ge  Ge10  1  0.19340350  0.00094650  0.20615100  1
  Ge  Ge11  1  0.19340350  0.99905350  0.70615100  1
  Ge  Ge12  1  0.80659650  0.00094650  0.29384900  1
  Ge  Ge13  1  0.80659650  0.99905350  0.79384900  1
  Ge  Ge14  1  0.69340350  0.50094650  0.20615100  1
  Ge  Ge15  1  0.69340350  0.49905350  0.70615100  1
  O  O16  1  0.00000000  0.08132400  0.25000000  1
  O  O17  1  0.50000000  0.41867600  0.75000000  1
  O  O18  1  0.35587150  0.32214250  0.38581300  1
  O  O19  1  0.85587150  0.17785750  0.88581300  1
  O  O20  1  0.64412850  0.32214250  0.11418700  1
  O  O21  1  0.14412850  0.17785750  0.61418700  1
  O  O22  1  0.24565200  0.15424600  0.10082200  1
  O  O23  1  0.24565200  0.84575400  0.60082200  1
  O  O24  1  0.25434800  0.65424600  0.39917800  1
  O  O25  1  0.25434800  0.34575400  0.89917800  1
  O  O26  1  0.39566200  0.98019900  0.36551000  1
  O  O27  1  0.39566200  0.01980100  0.86551000  1
  O  O28  1  0.10433800  0.48019900  0.13449000  1
  O  O29  1  0.10433800  0.51980100  0.63449000  1
  O  O30  1  0.50000000  0.58132400  0.25000000  1
  O  O31  1  0.00000000  0.91867600  0.75000000  1
  O  O32  1  0.85587150  0.82214250  0.38581300  1
  O  O33  1  0.35587150  0.67785750  0.88581300  1
  O  O34  1  0.14412850  0.82214250  0.11418700  1
  O  O35  1  0.64412850  0.67785750  0.61418700  1
  O  O36  1  0.74565200  0.65424600  0.10082200  1
  O  O37  1  0.74565200  0.34575400  0.60082200  1
  O  O38  1  0.75434800  0.15424600  0.39917800  1
  O  O39  1  0.75434800  0.84575400  0.89917800  1
  O  O40  1  0.89566200  0.48019900  0.36551000  1
  O  O41  1  0.89566200  0.51980100  0.86551000  1
  O  O42  1  0.60433800  0.98019900  0.13449000  1
  O  O43  1  0.60433800  0.01980100  0.63449000  1
