# generated using pymatgen
data_Li3Co3CuO8
_symmetry_space_group_name_H-M   'P 1'
_cell_length_a   5.82668710
_cell_length_b   5.82668710
_cell_length_c   14.60697188
_cell_angle_alpha   90.00000000
_cell_angle_beta   90.00000000
_cell_angle_gamma   120.00000000
_symmetry_Int_Tables_number   1
_chemical_formula_structural   Li3Co3CuO8
_chemical_formula_sum   'Li9 Co9 Cu3 O24'
_cell_volume   429.47137038
_cell_formula_units_Z   3
loop_
 _symmetry_equiv_pos_site_id
 _symmetry_equiv_pos_as_xyz
  1  'x, y, z'
loop_
 _atom_site_type_symbol
 _atom_site_label
 _atom_site_symmetry_multiplicity
 _atom_site_fract_x
 _atom_site_fract_y
 _atom_site_fract_z
 _atom_site_occupancy
  Li  Li0  1  0.83333333  0.16666667  0.16666667  1
  Li  Li1  1  0.33333333  0.16666667  0.16666667  1
  Li  Li2  1  0.83333333  0.66666667  0.16666667  1
  Li  Li3  1  0.50000000  0.50000000  0.50000000  1
  Li  Li4  1  0.00000000  0.50000000  0.50000000  1
  Li  Li5  1  0.50000000  0.00000000  0.50000000  1
  Li  Li6  1  0.16666667  0.83333333  0.83333333  1
  Li  Li7  1  0.66666667  0.83333333  0.83333333  1
  Li  Li8  1  0.16666667  0.33333333  0.83333333  1
  Co  Co9  1  0.50000000  0.00000000  0.00000000  1
  Co  Co10  1  0.50000000  0.50000000  0.00000000  1
  Co  Co11  1  0.00000000  0.50000000  0.00000000  1
  Co  Co12  1  0.16666667  0.33333333  0.33333333  1
  Co  Co13  1  0.16666667  0.83333333  0.33333333  1
  Co  Co14  1  0.66666667  0.83333333  0.33333333  1
  Co  Co15  1  0.83333333  0.66666667  0.66666667  1
  Co  Co16  1  0.83333333  0.16666667  0.66666667  1
  Co  Co17  1  0.33333333  0.16666667  0.66666667  1
  Cu  Cu18  1  0.00000000  0.00000000  0.00000000  1
  Cu  Cu19  1  0.66666667  0.33333333  0.33333333  1
  Cu  Cu20  1  0.33333333  0.66666667  0.66666667  1
  O  O21  1  0.99325067  0.49662533  0.26041233  1
  O  O22  1  0.50337467  0.49662533  0.26041233  1
  O  O23  1  0.50337467  0.00674933  0.26041233  1
  O  O24  1  0.00000000  0.00000000  0.25574100  1
  O  O25  1  0.66666667  0.33333333  0.07759233  1
  O  O26  1  0.16329200  0.32658400  0.07292100  1
  O  O27  1  0.16329200  0.83670800  0.07292100  1
  O  O28  1  0.67341600  0.83670800  0.07292100  1
  O  O29  1  0.65991733  0.82995867  0.59374567  1
  O  O30  1  0.17004133  0.82995867  0.59374567  1
  O  O31  1  0.17004133  0.34008267  0.59374567  1
  O  O32  1  0.66666667  0.33333333  0.58907433  1
  O  O33  1  0.33333333  0.66666667  0.41092567  1
  O  O34  1  0.82995867  0.65991733  0.40625433  1
  O  O35  1  0.82995867  0.17004133  0.40625433  1
  O  O36  1  0.34008267  0.17004133  0.40625433  1
  O  O37  1  0.32658400  0.16329200  0.92707900  1
  O  O38  1  0.83670800  0.16329200  0.92707900  1
  O  O39  1  0.83670800  0.67341600  0.92707900  1
  O  O40  1  0.33333333  0.66666667  0.92240767  1
  O  O41  1  0.00000000  0.00000000  0.74425900  1
  O  O42  1  0.49662533  0.99325067  0.73958767  1
  O  O43  1  0.49662533  0.50337467  0.73958767  1
  O  O44  1  0.00674933  0.50337467  0.73958767  1
