# generated using pymatgen
data_Li2Fe3CuO8
_symmetry_space_group_name_H-M   'P 1'
_cell_length_a   5.95946010
_cell_length_b   5.95946010
_cell_length_c   14.48439223
_cell_angle_alpha   90.00000000
_cell_angle_beta   90.00000000
_cell_angle_gamma   120.00000000
_symmetry_Int_Tables_number   1
_chemical_formula_structural   Li2Fe3CuO8
_chemical_formula_sum   'Li6 Fe9 Cu3 O24'
_cell_volume   445.49695602
_cell_formula_units_Z   3
loop_
 _symmetry_equiv_pos_site_id
 _symmetry_equiv_pos_as_xyz
  1  'x, y, z'
loop_
 _atom_site_type_symbol
 _atom_site_label
 _atom_site_symmetry_multiplicity
 _atom_site_fract_x
 _atom_site_fract_y
 _atom_site_fract_z
 _atom_site_occupancy
  Li  Li0  1  0.33333333  0.66666667  0.79339467  1
  Li  Li1  1  0.33333333  0.66666667  0.53993867  1
  Li  Li2  1  0.00000000  0.00000000  0.12672800  1
  Li  Li3  1  0.00000000  0.00000000  0.87327200  1
  Li  Li4  1  0.66666667  0.33333333  0.46006133  1
  Li  Li5  1  0.66666667  0.33333333  0.20660533  1
  Fe  Fe6  1  0.50000000  0.50000000  0.00000000  1
  Fe  Fe7  1  0.00000000  0.50000000  0.00000000  1
  Fe  Fe8  1  0.16666667  0.33333333  0.33333333  1
  Fe  Fe9  1  0.16666667  0.83333333  0.33333333  1
  Fe  Fe10  1  0.66666667  0.83333333  0.33333333  1
  Fe  Fe11  1  0.83333333  0.66666667  0.66666667  1
  Fe  Fe12  1  0.83333333  0.16666667  0.66666667  1
  Fe  Fe13  1  0.33333333  0.16666667  0.66666667  1
  Fe  Fe14  1  0.50000000  0.00000000  0.00000000  1
  Cu  Cu15  1  0.33333333  0.66666667  0.16666667  1
  Cu  Cu16  1  1.00000000  1.00000000  0.50000000  1
  Cu  Cu17  1  0.66666667  0.33333333  0.83333333  1
  O  O18  1  0.33333333  0.66666667  0.92849267  1
  O  O19  1  0.18344600  0.36689200  0.08136000  1
  O  O20  1  0.63310800  0.81655400  0.08136000  1
  O  O21  1  0.18344600  0.81655400  0.08136000  1
  O  O22  1  0.48322067  0.51677933  0.25197333  1
  O  O23  1  0.03355867  0.51677933  0.25197333  1
  O  O24  1  0.48322067  0.96644133  0.25197333  1
  O  O25  1  0.33333333  0.66666667  0.40484067  1
  O  O26  1  0.00000000  0.00000000  0.26182600  1
  O  O27  1  0.85011267  0.70022533  0.41469333  1
  O  O28  1  0.29977467  0.14988733  0.41469333  1
  O  O29  1  0.85011267  0.14988733  0.41469333  1
  O  O30  1  0.14988733  0.85011267  0.58530667  1
  O  O31  1  0.70022533  0.85011267  0.58530667  1
  O  O32  1  0.14988733  0.29977467  0.58530667  1
  O  O33  1  0.00000000  0.00000000  0.73817400  1
  O  O34  1  0.66666667  0.33333333  0.59515933  1
  O  O35  1  0.51677933  0.03355867  0.74802667  1
  O  O36  1  0.96644133  0.48322067  0.74802667  1
  O  O37  1  0.51677933  0.48322067  0.74802667  1
  O  O38  1  0.81655400  0.18344600  0.91864000  1
  O  O39  1  0.36689200  0.18344600  0.91864000  1
  O  O40  1  0.81655400  0.63310800  0.91864000  1
  O  O41  1  0.66666667  0.33333333  0.07150733  1
