# generated using pymatgen
data_Mn4O7F
_symmetry_space_group_name_H-M   'P 1'
_cell_length_a   8.91382000
_cell_length_b   10.96415600
_cell_length_c   4.95698669
_cell_angle_alpha   90.00000000
_cell_angle_beta   90.39144627
_cell_angle_gamma   90.00000000
_symmetry_Int_Tables_number   1
_chemical_formula_structural   Mn4O7F
_chemical_formula_sum   'Mn16 O28 F4'
_cell_volume   484.44745962
_cell_formula_units_Z   4
loop_
 _symmetry_equiv_pos_site_id
 _symmetry_equiv_pos_as_xyz
  1  'x, y, z'
loop_
 _atom_site_type_symbol
 _atom_site_label
 _atom_site_symmetry_multiplicity
 _atom_site_fract_x
 _atom_site_fract_y
 _atom_site_fract_z
 _atom_site_occupancy
  Mn  Mn0  1  0.49800200  0.93160500  0.72954800  1
  Mn  Mn1  1  0.49942800  0.57249600  0.25626200  1
  Mn  Mn2  1  0.75683900  0.17745800  0.76584100  1
  Mn  Mn3  1  0.75683900  0.82254200  0.26584100  1
  Mn  Mn4  1  0.25175650  0.16712450  0.74714300  1
  Mn  Mn5  1  0.25175650  0.83287550  0.24714300  1
  Mn  Mn6  1  0.49800200  0.06839500  0.22954800  1
  Mn  Mn7  1  0.49942800  0.42750400  0.75626200  1
  Mn  Mn8  1  0.99800200  0.43160500  0.72954800  1
  Mn  Mn9  1  0.99942800  0.07249600  0.25626200  1
  Mn  Mn10  1  0.25683900  0.67745800  0.76584100  1
  Mn  Mn11  1  0.25683900  0.32254200  0.26584100  1
  Mn  Mn12  1  0.75175650  0.66712450  0.74714300  1
  Mn  Mn13  1  0.75175650  0.33287550  0.24714300  1
  Mn  Mn14  1  0.99800200  0.56839500  0.22954800  1
  Mn  Mn15  1  0.99942800  0.92750400  0.75626200  1
  O  O16  1  0.36620150  0.69431950  0.08667500  1
  O  O17  1  0.36608100  0.80561400  0.57779200  1
  O  O18  1  0.61763250  0.05535550  0.91029900  1
  O  O19  1  0.11396300  0.94641900  0.43081500  1
  O  O20  1  0.11396300  0.05358100  0.93081500  1
  O  O21  1  0.61763250  0.94464450  0.41029900  1
  O  O22  1  0.63257250  0.69557050  0.42586900  1
  O  O23  1  0.36608100  0.19438600  0.07779200  1
  O  O24  1  0.36620150  0.30568050  0.58667500  1
  O  O25  1  0.38647150  0.94838750  0.05544000  1
  O  O26  1  0.38647150  0.05161250  0.55544000  1
  O  O27  1  0.88226100  0.05477900  0.58584300  1
  O  O28  1  0.88226100  0.94522100  0.08584300  1
  O  O29  1  0.63257250  0.30442950  0.92586900  1
  O  O30  1  0.86620150  0.19431950  0.08667500  1
  O  O31  1  0.86608100  0.30561400  0.57779200  1
  O  O32  1  0.11763250  0.55535550  0.91029900  1
  O  O33  1  0.61396300  0.44641900  0.43081500  1
  O  O34  1  0.61396300  0.55358100  0.93081500  1
  O  O35  1  0.11763250  0.44464450  0.41029900  1
  O  O36  1  0.13257250  0.19557050  0.42586900  1
  O  O37  1  0.86608100  0.69438600  0.07779200  1
  O  O38  1  0.86620150  0.80568050  0.58667500  1
  O  O39  1  0.88647150  0.44838750  0.05544000  1
  O  O40  1  0.88647150  0.55161250  0.55544000  1
  O  O41  1  0.38226100  0.55477900  0.58584300  1
  O  O42  1  0.38226100  0.44522100  0.08584300  1
  O  O43  1  0.13257250  0.80442950  0.92586900  1
  F  F44  1  0.62879100  0.81158300  0.92847300  1
  F  F45  1  0.62879100  0.18841700  0.42847300  1
  F  F46  1  0.12879100  0.31158300  0.92847300  1
  F  F47  1  0.12879100  0.68841700  0.42847300  1
