# generated using pymatgen
data_Li4MnSi2O7
_symmetry_space_group_name_H-M   'P 1'
_cell_length_a   13.48862349
_cell_length_b   5.49043000
_cell_length_c   8.16217261
_cell_angle_alpha   90.00000000
_cell_angle_beta   95.37298787
_cell_angle_gamma   90.00000000
_symmetry_Int_Tables_number   1
_chemical_formula_structural   Li4MnSi2O7
_chemical_formula_sum   'Li16 Mn4 Si8 O28'
_cell_volume   601.82104081
_cell_formula_units_Z   4
loop_
 _symmetry_equiv_pos_site_id
 _symmetry_equiv_pos_as_xyz
  1  'x, y, z'
loop_
 _atom_site_type_symbol
 _atom_site_label
 _atom_site_symmetry_multiplicity
 _atom_site_fract_x
 _atom_site_fract_y
 _atom_site_fract_z
 _atom_site_occupancy
  Li  Li0  1  0.57812975  0.84138275  0.87555800  1
  Li  Li1  1  0.57812975  0.15861725  0.37555800  1
  Li  Li2  1  0.70664625  0.82264275  0.59427550  1
  Li  Li3  1  0.70664625  0.17735725  0.09427550  1
  Li  Li4  1  0.77635225  0.64525425  0.94690850  1
  Li  Li5  1  0.77635225  0.35474575  0.44690850  1
  Li  Li6  1  0.50477875  0.30981825  0.02117550  1
  Li  Li7  1  0.50477875  0.69018175  0.52117550  1
  Li  Li8  1  0.07812975  0.34138275  0.87555800  1
  Li  Li9  1  0.07812975  0.65861725  0.37555800  1
  Li  Li10  1  0.20664625  0.32264275  0.59427550  1
  Li  Li11  1  0.20664625  0.67735725  0.09427550  1
  Li  Li12  1  0.27635225  0.14525425  0.94690850  1
  Li  Li13  1  0.27635225  0.85474575  0.44690850  1
  Li  Li14  1  0.00477875  0.80981825  0.02117550  1
  Li  Li15  1  0.00477875  0.19018175  0.52117550  1
  Mn  Mn16  1  0.85070025  0.16142975  0.79923800  1
  Mn  Mn17  1  0.85070025  0.83857025  0.29923800  1
  Mn  Mn18  1  0.35070025  0.66142975  0.79923800  1
  Mn  Mn19  1  0.35070025  0.33857025  0.29923800  1
  Si  Si20  1  0.63468725  0.32999325  0.73671500  1
  Si  Si21  1  0.63468725  0.67000675  0.23671500  1
  Si  Si22  1  0.92618275  0.66553325  0.67135600  1
  Si  Si23  1  0.92618275  0.33446675  0.17135600  1
  Si  Si24  1  0.13468725  0.82999325  0.73671500  1
  Si  Si25  1  0.13468725  0.17000675  0.23671500  1
  Si  Si26  1  0.42618275  0.16553325  0.67135600  1
  Si  Si27  1  0.42618275  0.83446675  0.17135600  1
  O  O28  1  0.52622875  0.31436825  0.60485950  1
  O  O29  1  0.52622875  0.68563175  0.10485950  1
  O  O30  1  0.61154075  0.18434625  0.90227600  1
  O  O31  1  0.61154075  0.81565375  0.40227600  1
  O  O32  1  0.66289925  0.61472925  0.77014350  1
  O  O33  1  0.66289925  0.38527075  0.27014350  1
  O  O34  1  0.72081325  0.18859625  0.64008850  1
  O  O35  1  0.72081325  0.81140375  0.14008850  1
  O  O36  1  0.83499575  0.68675025  0.52455850  1
  O  O37  1  0.83499575  0.31324975  0.02455850  1
  O  O38  1  0.89316525  0.80342875  0.83718750  1
  O  O39  1  0.89316525  0.19657125  0.33718750  1
  O  O40  1  0.95733475  0.37990775  0.70532150  1
  O  O41  1  0.95733475  0.62009225  0.20532150  1
  O  O42  1  0.02622875  0.81436825  0.60485950  1
  O  O43  1  0.02622875  0.18563175  0.10485950  1
  O  O44  1  0.11154075  0.68434625  0.90227600  1
  O  O45  1  0.11154075  0.31565375  0.40227600  1
  O  O46  1  0.16289925  0.11472925  0.77014350  1
  O  O47  1  0.16289925  0.88527075  0.27014350  1
  O  O48  1  0.22081325  0.68859625  0.64008850  1
  O  O49  1  0.22081325  0.31140375  0.14008850  1
  O  O50  1  0.33499575  0.18675025  0.52455850  1
  O  O51  1  0.33499575  0.81324975  0.02455850  1
  O  O52  1  0.39316525  0.30342875  0.83718750  1
  O  O53  1  0.39316525  0.69657125  0.33718750  1
  O  O54  1  0.45733475  0.87990775  0.70532150  1
  O  O55  1  0.45733475  0.12009225  0.20532150  1
