# generated using pymatgen
data_Fe3H4(OF4)2
_symmetry_space_group_name_H-M   'P 1'
_cell_length_a   7.73961600
_cell_length_b   7.62072800
_cell_length_c   7.51276249
_cell_angle_alpha   90.00000000
_cell_angle_beta   118.00983556
_cell_angle_gamma   90.00000000
_symmetry_Int_Tables_number   1
_chemical_formula_structural   Fe3H4(OF4)2
_chemical_formula_sum   'Fe6 H8 O4 F16'
_cell_volume   391.21077921
_cell_formula_units_Z   2
loop_
 _symmetry_equiv_pos_site_id
 _symmetry_equiv_pos_as_xyz
  1  'x, y, z'
loop_
 _atom_site_type_symbol
 _atom_site_label
 _atom_site_symmetry_multiplicity
 _atom_site_fract_x
 _atom_site_fract_y
 _atom_site_fract_z
 _atom_site_occupancy
  Fe  Fe0  1  0.00000000  0.00000000  0.00000000  1
  Fe  Fe1  1  0.25000000  0.75000000  0.50000000  1
  Fe  Fe2  1  0.75000000  0.75000000  0.50000000  1
  Fe  Fe3  1  0.50000000  0.50000000  0.00000000  1
  Fe  Fe4  1  0.75000000  0.25000000  0.50000000  1
  Fe  Fe5  1  0.25000000  0.25000000  0.50000000  1
  H  H6  1  0.20420900  0.39577400  0.08443500  1
  H  H7  1  0.20420900  0.60422600  0.08443500  1
  H  H8  1  0.79579100  0.60422600  0.91556500  1
  H  H9  1  0.79579100  0.39577400  0.91556500  1
  H  H10  1  0.70420900  0.89577400  0.08443500  1
  H  H11  1  0.70420900  0.10422600  0.08443500  1
  H  H12  1  0.29579100  0.10422600  0.91556500  1
  H  H13  1  0.29579100  0.89577400  0.91556500  1
  O  O14  1  0.24377300  0.50000000  0.03431600  1
  O  O15  1  0.75622700  0.50000000  0.96568400  1
  O  O16  1  0.74377300  0.00000000  0.03431600  1
  O  O17  1  0.25622700  0.00000000  0.96568400  1
  F  F18  1  0.86975300  0.20688900  0.78975400  1
  F  F19  1  0.86975300  0.79311100  0.78975400  1
  F  F20  1  0.13024700  0.79311100  0.21024600  1
  F  F21  1  0.13024700  0.20688900  0.21024600  1
  F  F22  1  0.18265400  0.50000000  0.43878900  1
  F  F23  1  0.81734600  0.50000000  0.56121100  1
  F  F24  1  0.00000000  0.79428400  0.50000000  1
  F  F25  1  0.00000000  0.20571600  0.50000000  1
  F  F26  1  0.36975300  0.70688900  0.78975400  1
  F  F27  1  0.36975300  0.29311100  0.78975400  1
  F  F28  1  0.63024700  0.29311100  0.21024600  1
  F  F29  1  0.63024700  0.70688900  0.21024600  1
  F  F30  1  0.68265400  0.00000000  0.43878900  1
  F  F31  1  0.31734600  0.00000000  0.56121100  1
  F  F32  1  0.50000000  0.29428400  0.50000000  1
  F  F33  1  0.50000000  0.70571600  0.50000000  1
