# generated using pymatgen
data_V3NiO8
_symmetry_space_group_name_H-M   'P 1'
_cell_length_a   12.14148000
_cell_length_b   3.77196400
_cell_length_c   6.46274230
_cell_angle_alpha   90.00000000
_cell_angle_beta   106.91882549
_cell_angle_gamma   90.00000000
_symmetry_Int_Tables_number   1
_chemical_formula_structural   V3NiO8
_chemical_formula_sum   'V6 Ni2 O16'
_cell_volume   283.16525260
_cell_formula_units_Z   2
loop_
 _symmetry_equiv_pos_site_id
 _symmetry_equiv_pos_as_xyz
  1  'x, y, z'
loop_
 _atom_site_type_symbol
 _atom_site_label
 _atom_site_symmetry_multiplicity
 _atom_site_fract_x
 _atom_site_fract_y
 _atom_site_fract_z
 _atom_site_occupancy
  V  V0  1  0.39965900  0.00000000  0.28191300  1
  V  V1  1  0.10044200  0.50000000  0.72407500  1
  V  V2  1  0.29443100  0.00000000  0.69892000  1
  V  V3  1  0.89965900  0.50000000  0.28191300  1
  V  V4  1  0.60044200  0.00000000  0.72407500  1
  V  V5  1  0.79443100  0.50000000  0.69892000  1
  Ni  Ni6  1  0.20454700  0.50000000  0.30724700  1
  Ni  Ni7  1  0.70454700  0.00000000  0.30724700  1
  O  O8  1  0.13160700  0.00000000  0.68978000  1
  O  O9  1  0.25122200  0.00000000  0.37176300  1
  O  O10  1  0.35803800  0.00000000  0.98913400  1
  O  O11  1  0.44811700  0.00000000  0.64119300  1
  O  O12  1  0.04671900  0.50000000  0.35210600  1
  O  O13  1  0.13392100  0.50000000  0.98974200  1
  O  O14  1  0.25609700  0.50000000  0.66189800  1
  O  O15  1  0.37519900  0.50000000  0.29222900  1
  O  O16  1  0.63160700  0.50000000  0.68978000  1
  O  O17  1  0.75122200  0.50000000  0.37176300  1
  O  O18  1  0.85803800  0.50000000  0.98913400  1
  O  O19  1  0.94811700  0.50000000  0.64119300  1
  O  O20  1  0.54671900  0.00000000  0.35210600  1
  O  O21  1  0.63392100  0.00000000  0.98974200  1
  O  O22  1  0.75609700  0.00000000  0.66189800  1
  O  O23  1  0.87519900  0.00000000  0.29222900  1
