# generated using pymatgen
data_LiTiCrO4
_symmetry_space_group_name_H-M   'P 1'
_cell_length_a   5.97182507
_cell_length_b   5.98089300
_cell_length_c   8.40005600
_cell_angle_alpha   90.00000000
_cell_angle_beta   90.00000000
_cell_angle_gamma   90.00000000
_symmetry_Int_Tables_number   1
_chemical_formula_structural   LiTiCrO4
_chemical_formula_sum   'Li4 Ti4 Cr4 O16'
_cell_volume   300.02351287
_cell_formula_units_Z   4
loop_
 _symmetry_equiv_pos_site_id
 _symmetry_equiv_pos_as_xyz
  1  'x, y, z'
loop_
 _atom_site_type_symbol
 _atom_site_label
 _atom_site_symmetry_multiplicity
 _atom_site_fract_x
 _atom_site_fract_y
 _atom_site_fract_z
 _atom_site_occupancy
  Li  Li0  1  0.50000000  0.25000000  0.62179200  1
  Li  Li1  1  0.00000000  0.25000000  0.87820800  1
  Li  Li2  1  0.00000000  0.75000000  0.12179200  1
  Li  Li3  1  0.50000000  0.75000000  0.37820800  1
  Ti  Ti4  1  0.75000000  0.75000000  0.75000000  1
  Ti  Ti5  1  0.25000000  0.75000000  0.75000000  1
  Ti  Ti6  1  0.25000000  0.25000000  0.25000000  1
  Ti  Ti7  1  0.75000000  0.25000000  0.25000000  1
  Cr  Cr8  1  0.50000000  0.50000000  0.00000000  1
  Cr  Cr9  1  0.00000000  0.50000000  0.50000000  1
  Cr  Cr10  1  0.00000000  0.00000000  0.50000000  1
  Cr  Cr11  1  0.50000000  0.00000000  0.00000000  1
  O  O12  1  0.50000000  0.52838300  0.75797450  1
  O  O13  1  0.00000000  0.47161700  0.25797450  1
  O  O14  1  0.50000000  0.02838300  0.24202550  1
  O  O15  1  0.00000000  0.97161700  0.74202550  1
  O  O16  1  0.77239800  0.25000000  0.48333800  1
  O  O17  1  0.22760200  0.25000000  0.48333800  1
  O  O18  1  0.72760200  0.25000000  0.01666200  1
  O  O19  1  0.27239800  0.25000000  0.01666200  1
  O  O20  1  0.00000000  0.02838300  0.25797450  1
  O  O21  1  0.50000000  0.97161700  0.75797450  1
  O  O22  1  0.00000000  0.52838300  0.74202550  1
  O  O23  1  0.50000000  0.47161700  0.24202550  1
  O  O24  1  0.27239800  0.75000000  0.98333800  1
  O  O25  1  0.72760200  0.75000000  0.98333800  1
  O  O26  1  0.22760200  0.75000000  0.51666200  1
  O  O27  1  0.77239800  0.75000000  0.51666200  1
