# generated using pymatgen
data_Co5P4(HO2)10
_symmetry_space_group_name_H-M   'P 1'
_cell_length_a   17.43498600
_cell_length_b   8.99932600
_cell_length_c   9.41172035
_cell_angle_alpha   90.00000000
_cell_angle_beta   96.71107411
_cell_angle_gamma   90.00000000
_symmetry_Int_Tables_number   1
_chemical_formula_structural   Co5P4(HO2)10
_chemical_formula_sum   'Co20 P16 H40 O80'
_cell_volume   1466.60989052
_cell_formula_units_Z   4
loop_
 _symmetry_equiv_pos_site_id
 _symmetry_equiv_pos_as_xyz
  1  'x, y, z'
loop_
 _atom_site_type_symbol
 _atom_site_label
 _atom_site_symmetry_multiplicity
 _atom_site_fract_x
 _atom_site_fract_y
 _atom_site_fract_z
 _atom_site_occupancy
  Co  Co0  1  0.68515450  0.58620650  0.81197400  1
  Co  Co1  1  0.81484550  0.08620650  0.68802600  1
  Co  Co2  1  0.81484550  0.91379350  0.18802600  1
  Co  Co3  1  0.68515450  0.41379350  0.31197400  1
  Co  Co4  1  0.00000000  0.40300100  0.25000000  1
  Co  Co5  1  0.00000000  0.59699900  0.75000000  1
  Co  Co6  1  0.67476000  0.97675300  0.86968700  1
  Co  Co7  1  0.82524000  0.47675300  0.63031300  1
  Co  Co8  1  0.82524000  0.52324700  0.13031300  1
  Co  Co9  1  0.67476000  0.02324700  0.36968700  1
  Co  Co10  1  0.18515450  0.08620650  0.81197400  1
  Co  Co11  1  0.31484550  0.58620650  0.68802600  1
  Co  Co12  1  0.31484550  0.41379350  0.18802600  1
  Co  Co13  1  0.18515450  0.91379350  0.31197400  1
  Co  Co14  1  0.50000000  0.90300100  0.25000000  1
  Co  Co15  1  0.50000000  0.09699900  0.75000000  1
  Co  Co16  1  0.17476000  0.47675300  0.86968700  1
  Co  Co17  1  0.32524000  0.97675300  0.63031300  1
  Co  Co18  1  0.32524000  0.02324700  0.13031300  1
  Co  Co19  1  0.17476000  0.52324700  0.36968700  1
  P  P20  1  0.91684450  0.67955750  0.41066300  1
  P  P21  1  0.58315550  0.17955750  0.08933700  1
  P  P22  1  0.58315550  0.82044250  0.58933700  1
  P  P23  1  0.91684450  0.32044250  0.91066300  1
  P  P24  1  0.66113900  0.74057500  0.12858300  1
  P  P25  1  0.83886100  0.24057500  0.37141700  1
  P  P26  1  0.83886100  0.75942500  0.87141700  1
  P  P27  1  0.66113900  0.25942500  0.62858300  1
  P  P28  1  0.41684450  0.17955750  0.41066300  1
  P  P29  1  0.08315550  0.67955750  0.08933700  1
  P  P30  1  0.08315550  0.32044250  0.58933700  1
  P  P31  1  0.41684450  0.82044250  0.91066300  1
  P  P32  1  0.16113900  0.24057500  0.12858300  1
  P  P33  1  0.33886100  0.74057500  0.37141700  1
  P  P34  1  0.33886100  0.25942500  0.87141700  1
  P  P35  1  0.16113900  0.75942500  0.62858300  1
  H  H36  1  0.76532700  0.35272300  0.91066300  1
  H  H37  1  0.73467300  0.85272300  0.58933700  1
  H  H38  1  0.73467300  0.14727700  0.08933700  1
  H  H39  1  0.76532700  0.64727700  0.41066300  1
  H  H40  1  0.70179150  0.37415150  0.02234500  1
  H  H41  1  0.79820850  0.87415150  0.47765500  1
  H  H42  1  0.79820850  0.12584850  0.97765500  1
  H  H43  1  0.70179150  0.62584850  0.52234500  1
  H  H44  1  0.56789800  0.41539400  0.77632600  1
  H  H45  1  0.93210200  0.91539400  0.72367400  1
  H  H46  1  0.93210200  0.08460600  0.22367400  1
  H  H47  1  0.56789800  0.58460600  0.27632600  1
  H  H48  1  0.53772200  0.56576100  0.85497500  1
  H  H49  1  0.96227800  0.06576100  0.64502500  1
  H  H50  1  0.96227800  0.93423900  0.14502500  1
  H  H51  1  0.53772200  0.43423900  0.35497500  1
  H  H52  1  0.52410900  0.27834900  0.52004100  1
  H  H53  1  0.97589100  0.77834900  0.97995900  1
  H  H54  1  0.97589100  0.22165100  0.47995900  1
  H  H55  1  0.52410900  0.72165100  0.02004100  1
  H  H56  1  0.26532700  0.85272300  0.91066300  1
  H  H57  1  0.23467300  0.35272300  0.58933700  1
  H  H58  1  0.23467300  0.64727700  0.08933700  1
  H  H59  1  0.26532700  0.14727700  0.41066300  1
  H  H60  1  0.20179150  0.87415150  0.02234500  1
  H  H61  1  0.29820850  0.37415150  0.47765500  1
  H  H62  1  0.29820850  0.62584850  0.97765500  1
  H  H63  1  0.20179150  0.12584850  0.52234500  1
  H  H64  1  0.06789800  0.91539400  0.77632600  1
  H  H65  1  0.43210200  0.41539400  0.72367400  1
  H  H66  1  0.43210200  0.58460600  0.22367400  1
  H  H67  1  0.06789800  0.08460600  0.27632600  1
  H  H68  1  0.03772200  0.06576100  0.85497500  1
  H  H69  1  0.46227800  0.56576100  0.64502500  1
  H  H70  1  0.46227800  0.43423900  0.14502500  1
  H  H71  1  0.03772200  0.93423900  0.35497500  1
  H  H72  1  0.02410900  0.77834900  0.52004100  1
  H  H73  1  0.47589100  0.27834900  0.97995900  1
  H  H74  1  0.47589100  0.72165100  0.47995900  1
  H  H75  1  0.02410900  0.22165100  0.02004100  1
  O  O76  1  0.66448150  0.76797350  0.96551000  1
  O  O77  1  0.83551850  0.26797350  0.53449000  1
  O  O78  1  0.83551850  0.73202650  0.03449000  1
  O  O79  1  0.66448150  0.23202650  0.46551000  1
  O  O80  1  0.57438900  0.73335300  0.16030100  1
  O  O81  1  0.92561100  0.23335300  0.33969900  1
  O  O82  1  0.92561100  0.76664700  0.83969900  1
  O  O83  1  0.57438900  0.26664700  0.66030100  1
  O  O84  1  0.92208550  0.56815950  0.28836000  1
  O  O85  1  0.57791450  0.06815950  0.21164000  1
  O  O86  1  0.57791450  0.93184050  0.71164000  1
  O  O87  1  0.92208550  0.43184050  0.78836000  1
  O  O88  1  0.79790650  0.62924750  0.78336600  1
  O  O89  1  0.70209350  0.12924750  0.71663400  1
  O  O90  1  0.70209350  0.87075250  0.21663400  1
  O  O91  1  0.79790650  0.37075250  0.28336600  1
  O  O92  1  0.70355300  0.40524700  0.67449700  1
  O  O93  1  0.79644700  0.90524700  0.82550300  1
  O  O94  1  0.79644700  0.09475300  0.32550300  1
  O  O95  1  0.70355300  0.59475300  0.17449700  1
  O  O96  1  0.74090900  0.42742600  0.96896800  1
  O  O97  1  0.75909100  0.92742600  0.53103200  1
  O  O98  1  0.75909100  0.07257400  0.03103200  1
  O  O99  1  0.74090900  0.57257400  0.46896800  1
  O  O100  1  0.58164350  0.49904050  0.84378800  1
  O  O101  1  0.91835650  0.99904050  0.65621200  1
  O  O102  1  0.91835650  0.00095950  0.15621200  1
  O  O103  1  0.58164350  0.50095950  0.34378800  1
  O  O104  1  0.91683600  0.60248800  0.55783600  1
  O  O105  1  0.58316400  0.10248800  0.94216400  1
  O  O106  1  0.58316400  0.89751200  0.44216400  1
  O  O107  1  0.91683600  0.39751200  0.05783600  1
  O  O108  1  0.65702900  0.72636700  0.62984400  1
  O  O109  1  0.84297100  0.22636700  0.87015600  1
  O  O110  1  0.84297100  0.77363300  0.37015600  1
  O  O111  1  0.65702900  0.27363300  0.12984400  1
  O  O112  1  0.98891450  0.78740050  0.42367800  1
  O  O113  1  0.51108550  0.28740050  0.07632200  1
  O  O114  1  0.51108550  0.71259950  0.57632200  1
  O  O115  1  0.98891450  0.21259950  0.92367800  1
  O  O116  1  0.16448150  0.26797350  0.96551000  1
  O  O117  1  0.33551850  0.76797350  0.53449000  1
  O  O118  1  0.33551850  0.23202650  0.03449000  1
  O  O119  1  0.16448150  0.73202650  0.46551000  1
  O  O120  1  0.07438900  0.23335300  0.16030100  1
  O  O121  1  0.42561100  0.73335300  0.33969900  1
  O  O122  1  0.42561100  0.26664700  0.83969900  1
  O  O123  1  0.07438900  0.76664700  0.66030100  1
  O  O124  1  0.42208550  0.06815950  0.28836000  1
  O  O125  1  0.07791450  0.56815950  0.21164000  1
  O  O126  1  0.07791450  0.43184050  0.71164000  1
  O  O127  1  0.42208550  0.93184050  0.78836000  1
  O  O128  1  0.29790650  0.12924750  0.78336600  1
  O  O129  1  0.20209350  0.62924750  0.71663400  1
  O  O130  1  0.20209350  0.37075250  0.21663400  1
  O  O131  1  0.29790650  0.87075250  0.28336600  1
  O  O132  1  0.20355300  0.90524700  0.67449700  1
  O  O133  1  0.29644700  0.40524700  0.82550300  1
  O  O134  1  0.29644700  0.59475300  0.32550300  1
  O  O135  1  0.20355300  0.09475300  0.17449700  1
  O  O136  1  0.24090900  0.92742600  0.96896800  1
  O  O137  1  0.25909100  0.42742600  0.53103200  1
  O  O138  1  0.25909100  0.57257400  0.03103200  1
  O  O139  1  0.24090900  0.07257400  0.46896800  1
  O  O140  1  0.08164350  0.99904050  0.84378800  1
  O  O141  1  0.41835650  0.49904050  0.65621200  1
  O  O142  1  0.41835650  0.50095950  0.15621200  1
  O  O143  1  0.08164350  0.00095950  0.34378800  1
  O  O144  1  0.41683600  0.10248800  0.55783600  1
  O  O145  1  0.08316400  0.60248800  0.94216400  1
  O  O146  1  0.08316400  0.39751200  0.44216400  1
  O  O147  1  0.41683600  0.89751200  0.05783600  1
  O  O148  1  0.15702900  0.22636700  0.62984400  1
  O  O149  1  0.34297100  0.72636700  0.87015600  1
  O  O150  1  0.34297100  0.27363300  0.37015600  1
  O  O151  1  0.15702900  0.77363300  0.12984400  1
  O  O152  1  0.48891450  0.28740050  0.42367800  1
  O  O153  1  0.01108550  0.78740050  0.07632200  1
  O  O154  1  0.01108550  0.21259950  0.57632200  1
  O  O155  1  0.48891450  0.71259950  0.92367800  1
