# generated using pymatgen
data_NaFe2(SiO3)4
_symmetry_space_group_name_H-M   'P 1'
_cell_length_a   9.78041811
_cell_length_b   8.84474200
_cell_length_c   5.35926111
_cell_angle_alpha   90.00000000
_cell_angle_beta   108.12722066
_cell_angle_gamma   90.00000000
_symmetry_Int_Tables_number   1
_chemical_formula_structural   NaFe2(SiO3)4
_chemical_formula_sum   'Na2 Fe4 Si8 O24'
_cell_volume   440.59475551
_cell_formula_units_Z   2
loop_
 _symmetry_equiv_pos_site_id
 _symmetry_equiv_pos_as_xyz
  1  'x, y, z'
loop_
 _atom_site_type_symbol
 _atom_site_label
 _atom_site_symmetry_multiplicity
 _atom_site_fract_x
 _atom_site_fract_y
 _atom_site_fract_z
 _atom_site_occupancy
  Na  Na0  1  0.00000000  0.29672000  0.00000000  1
  Na  Na1  1  0.50000000  0.79672000  0.00000000  1
  Fe  Fe2  1  0.00000000  0.89465550  0.00000000  1
  Fe  Fe3  1  0.00000000  0.09735150  0.50000000  1
  Fe  Fe4  1  0.50000000  0.39465550  0.00000000  1
  Fe  Fe5  1  0.50000000  0.59735150  0.50000000  1
  Si  Si6  1  0.20698650  0.58786650  0.01141900  1
  Si  Si7  1  0.20792450  0.41324950  0.51657100  1
  Si  Si8  1  0.79301350  0.58786650  0.98858100  1
  Si  Si9  1  0.79207550  0.41324950  0.48342900  1
  Si  Si10  1  0.70698650  0.08786650  0.01141900  1
  Si  Si11  1  0.70792450  0.91324950  0.51657100  1
  Si  Si12  1  0.29301350  0.08786650  0.98858100  1
  Si  Si13  1  0.29207550  0.91324950  0.48342900  1
  O  O14  1  0.38489350  0.57897950  0.11096500  1
  O  O15  1  0.38497150  0.42829550  0.61773500  1
  O  O16  1  0.14551750  0.75843850  0.96494300  1
  O  O17  1  0.14875700  0.50080500  0.23037300  1
  O  O18  1  0.13907450  0.24480650  0.45213300  1
  O  O19  1  0.14540700  0.49230200  0.73601500  1
  O  O20  1  0.85124300  0.50080500  0.76962700  1
  O  O21  1  0.85448250  0.75843850  0.03505700  1
  O  O22  1  0.85459300  0.49230200  0.26398500  1
  O  O23  1  0.86092550  0.24480650  0.54786700  1
  O  O24  1  0.61510650  0.57897950  0.88903500  1
  O  O25  1  0.61502850  0.42829550  0.38226500  1
  O  O26  1  0.88489350  0.07897950  0.11096500  1
  O  O27  1  0.88497150  0.92829550  0.61773500  1
  O  O28  1  0.64551750  0.25843850  0.96494300  1
  O  O29  1  0.64875700  0.00080500  0.23037300  1
  O  O30  1  0.63907450  0.74480650  0.45213300  1
  O  O31  1  0.64540700  0.99230200  0.73601500  1
  O  O32  1  0.35124300  0.00080500  0.76962700  1
  O  O33  1  0.35448250  0.25843850  0.03505700  1
  O  O34  1  0.35459300  0.99230200  0.26398500  1
  O  O35  1  0.36092550  0.74480650  0.54786700  1
  O  O36  1  0.11510650  0.07897950  0.88903500  1
  O  O37  1  0.11502850  0.92829550  0.38226500  1
