# generated using pymatgen
data_Sr(BRh)2
_symmetry_space_group_name_H-M   'P 1'
_cell_length_a   6.06995000
_cell_length_b   9.46753000
_cell_length_c   10.72952800
_cell_angle_alpha   90.00000000
_cell_angle_beta   90.00000000
_cell_angle_gamma   90.00000000
_symmetry_Int_Tables_number   1
_chemical_formula_structural   Sr(BRh)2
_chemical_formula_sum   'Sr8 B16 Rh16'
_cell_volume   616.59843922
_cell_formula_units_Z   8
loop_
 _symmetry_equiv_pos_site_id
 _symmetry_equiv_pos_as_xyz
  1  'x, y, z'
loop_
 _atom_site_type_symbol
 _atom_site_label
 _atom_site_symmetry_multiplicity
 _atom_site_fract_x
 _atom_site_fract_y
 _atom_site_fract_z
 _atom_site_occupancy
  Sr  Sr0  1  0.00000000  0.00000000  0.00000000  1
  Sr  Sr1  1  0.75000000  0.75000000  0.25000000  1
  Sr  Sr2  1  0.00000000  0.50000000  0.50000000  1
  Sr  Sr3  1  0.75000000  0.25000000  0.75000000  1
  Sr  Sr4  1  0.50000000  0.00000000  0.50000000  1
  Sr  Sr5  1  0.25000000  0.75000000  0.75000000  1
  Sr  Sr6  1  0.50000000  0.50000000  0.00000000  1
  Sr  Sr7  1  0.25000000  0.25000000  0.25000000  1
  B  B8  1  0.50000000  0.82836300  0.00000000  1
  B  B9  1  0.75000000  0.07836300  0.25000000  1
  B  B10  1  0.50000000  0.17163700  0.00000000  1
  B  B11  1  0.75000000  0.42163700  0.25000000  1
  B  B12  1  0.50000000  0.32836300  0.50000000  1
  B  B13  1  0.75000000  0.57836300  0.75000000  1
  B  B14  1  0.50000000  0.67163700  0.50000000  1
  B  B15  1  0.75000000  0.92163700  0.75000000  1
  B  B16  1  0.00000000  0.82836300  0.50000000  1
  B  B17  1  0.25000000  0.07836300  0.75000000  1
  B  B18  1  0.00000000  0.17163700  0.50000000  1
  B  B19  1  0.25000000  0.42163700  0.75000000  1
  B  B20  1  0.00000000  0.32836300  0.00000000  1
  B  B21  1  0.25000000  0.57836300  0.25000000  1
  B  B22  1  0.00000000  0.67163700  0.00000000  1
  B  B23  1  0.25000000  0.92163700  0.25000000  1
  Rh  Rh24  1  0.50000000  0.00000000  0.13071900  1
  Rh  Rh25  1  0.75000000  0.25000000  0.38071900  1
  Rh  Rh26  1  0.75000000  0.25000000  0.11928100  1
  Rh  Rh27  1  0.00000000  0.00000000  0.36928100  1
  Rh  Rh28  1  0.50000000  0.50000000  0.63071900  1
  Rh  Rh29  1  0.75000000  0.75000000  0.88071900  1
  Rh  Rh30  1  0.75000000  0.75000000  0.61928100  1
  Rh  Rh31  1  0.00000000  0.50000000  0.86928100  1
  Rh  Rh32  1  0.00000000  0.00000000  0.63071900  1
  Rh  Rh33  1  0.25000000  0.25000000  0.88071900  1
  Rh  Rh34  1  0.25000000  0.25000000  0.61928100  1
  Rh  Rh35  1  0.50000000  0.00000000  0.86928100  1
  Rh  Rh36  1  0.00000000  0.50000000  0.13071900  1
  Rh  Rh37  1  0.25000000  0.75000000  0.38071900  1
  Rh  Rh38  1  0.25000000  0.75000000  0.11928100  1
  Rh  Rh39  1  0.50000000  0.50000000  0.36928100  1
