# generated using pymatgen
data_Sc(CuO2)2
_symmetry_space_group_name_H-M   'P 1'
_cell_length_a   5.50411200
_cell_length_b   5.50411200
_cell_length_c   9.44950800
_cell_angle_alpha   90.00000000
_cell_angle_beta   90.00000000
_cell_angle_gamma   90.00000000
_symmetry_Int_Tables_number   1
_chemical_formula_structural   Sc(CuO2)2
_chemical_formula_sum   'Sc4 Cu8 O16'
_cell_volume   286.27519692
_cell_formula_units_Z   4
loop_
 _symmetry_equiv_pos_site_id
 _symmetry_equiv_pos_as_xyz
  1  'x, y, z'
loop_
 _atom_site_type_symbol
 _atom_site_label
 _atom_site_symmetry_multiplicity
 _atom_site_fract_x
 _atom_site_fract_y
 _atom_site_fract_z
 _atom_site_occupancy
  Sc  Sc0  1  0.00000000  0.00000000  0.00000000  1
  Sc  Sc1  1  0.00000000  0.50000000  0.25000000  1
  Sc  Sc2  1  0.50000000  0.50000000  0.50000000  1
  Sc  Sc3  1  0.50000000  0.00000000  0.75000000  1
  Cu  Cu4  1  0.50000000  0.25000000  0.12500000  1
  Cu  Cu5  1  0.25000000  0.00000000  0.37500000  1
  Cu  Cu6  1  0.75000000  0.00000000  0.37500000  1
  Cu  Cu7  1  0.50000000  0.75000000  0.12500000  1
  Cu  Cu8  1  0.00000000  0.75000000  0.62500000  1
  Cu  Cu9  1  0.75000000  0.50000000  0.87500000  1
  Cu  Cu10  1  0.25000000  0.50000000  0.87500000  1
  Cu  Cu11  1  0.00000000  0.25000000  0.62500000  1
  O  O12  1  0.19421300  0.84510900  0.19703600  1
  O  O13  1  0.19421300  0.34510900  0.05296400  1
  O  O14  1  0.15489100  0.69421300  0.44703600  1
  O  O15  1  0.65489100  0.69421300  0.30296400  1
  O  O16  1  0.84510900  0.30578700  0.44703600  1
  O  O17  1  0.34510900  0.30578700  0.30296400  1
  O  O18  1  0.80578700  0.15489100  0.19703600  1
  O  O19  1  0.80578700  0.65489100  0.05296400  1
  O  O20  1  0.69421300  0.34510900  0.69703600  1
  O  O21  1  0.69421300  0.84510900  0.55296400  1
  O  O22  1  0.65489100  0.19421300  0.94703600  1
  O  O23  1  0.15489100  0.19421300  0.80296400  1
  O  O24  1  0.34510900  0.80578700  0.94703600  1
  O  O25  1  0.84510900  0.80578700  0.80296400  1
  O  O26  1  0.30578700  0.65489100  0.69703600  1
  O  O27  1  0.30578700  0.15489100  0.55296400  1
