# generated using pymatgen
data_Sr5Ir3O11
_symmetry_space_group_name_H-M   'P 1'
_cell_length_a   5.53501800
_cell_length_b   5.71622000
_cell_length_c   16.75586546
_cell_angle_alpha   90.00000000
_cell_angle_beta   90.30949558
_cell_angle_gamma   90.00000000
_symmetry_Int_Tables_number   1
_chemical_formula_structural   Sr5Ir3O11
_chemical_formula_sum   'Sr10 Ir6 O22'
_cell_volume   530.13746987
_cell_formula_units_Z   2
loop_
 _symmetry_equiv_pos_site_id
 _symmetry_equiv_pos_as_xyz
  1  'x, y, z'
loop_
 _atom_site_type_symbol
 _atom_site_label
 _atom_site_symmetry_multiplicity
 _atom_site_fract_x
 _atom_site_fract_y
 _atom_site_fract_z
 _atom_site_occupancy
  Sr  Sr0  1  0.98184200  0.00000000  0.72988000  1
  Sr  Sr1  1  0.00046000  0.00000000  0.49991500  1
  Sr  Sr2  1  0.01391300  0.00000000  0.26995600  1
  Sr  Sr3  1  0.49154100  0.00000000  0.11051400  1
  Sr  Sr4  1  0.48439600  0.00000000  0.88945000  1
  Sr  Sr5  1  0.48184200  0.50000000  0.72988000  1
  Sr  Sr6  1  0.50046000  0.50000000  0.49991500  1
  Sr  Sr7  1  0.51391300  0.50000000  0.26995600  1
  Sr  Sr8  1  0.99154100  0.50000000  0.11051400  1
  Sr  Sr9  1  0.98439600  0.50000000  0.88945000  1
  Ir  Ir10  1  0.99640700  0.00000000  0.00002700  1
  Ir  Ir11  1  0.49563200  0.00000000  0.62270600  1
  Ir  Ir12  1  0.50363600  0.00000000  0.37724200  1
  Ir  Ir13  1  0.49640700  0.50000000  0.00002700  1
  Ir  Ir14  1  0.99563200  0.50000000  0.62270600  1
  Ir  Ir15  1  0.00363600  0.50000000  0.37724200  1
  O  O16  1  0.71323600  0.27648300  0.62043400  1
  O  O17  1  0.99594200  0.00000000  0.87587200  1
  O  O18  1  0.28642150  0.72321950  0.37966400  1
  O  O19  1  0.00070400  0.00000000  0.12416200  1
  O  O20  1  0.71323600  0.72351700  0.62043400  1
  O  O21  1  0.72162550  0.77046650  0.00005000  1
  O  O22  1  0.49627000  0.00000000  0.74366500  1
  O  O23  1  0.49970400  0.00000000  0.49996900  1
  O  O24  1  0.50160900  0.00000000  0.25634300  1
  O  O25  1  0.28642150  0.27678050  0.37966400  1
  O  O26  1  0.72162550  0.22953350  0.00005000  1
  O  O27  1  0.21323600  0.77648300  0.62043400  1
  O  O28  1  0.49594200  0.50000000  0.87587200  1
  O  O29  1  0.78642150  0.22321950  0.37966400  1
  O  O30  1  0.50070400  0.50000000  0.12416200  1
  O  O31  1  0.21323600  0.22351700  0.62043400  1
  O  O32  1  0.22162550  0.27046650  0.00005000  1
  O  O33  1  0.99627000  0.50000000  0.74366500  1
  O  O34  1  0.99970400  0.50000000  0.49996900  1
  O  O35  1  0.00160900  0.50000000  0.25634300  1
  O  O36  1  0.78642150  0.77678050  0.37966400  1
  O  O37  1  0.22162550  0.72953350  0.00005000  1
