# generated using pymatgen
data_LiNiPO4
_symmetry_space_group_name_H-M   'P 1'
_cell_length_a   5.60587100
_cell_length_b   9.31887100
_cell_length_c   11.11816600
_cell_angle_alpha   90.00000000
_cell_angle_beta   90.00000000
_cell_angle_gamma   90.00000000
_symmetry_Int_Tables_number   1
_chemical_formula_structural   LiNiPO4
_chemical_formula_sum   'Li8 Ni8 P8 O32'
_cell_volume   580.81731355
_cell_formula_units_Z   8
loop_
 _symmetry_equiv_pos_site_id
 _symmetry_equiv_pos_as_xyz
  1  'x, y, z'
loop_
 _atom_site_type_symbol
 _atom_site_label
 _atom_site_symmetry_multiplicity
 _atom_site_fract_x
 _atom_site_fract_y
 _atom_site_fract_z
 _atom_site_occupancy
  Li  Li0  1  0.50000000  0.31227100  0.00000000  1
  Li  Li1  1  0.75000000  0.06227100  0.75000000  1
  Li  Li2  1  0.50000000  0.81227100  0.50000000  1
  Li  Li3  1  0.75000000  0.56227100  0.25000000  1
  Li  Li4  1  0.00000000  0.81227100  0.00000000  1
  Li  Li5  1  0.25000000  0.56227100  0.75000000  1
  Li  Li6  1  0.00000000  0.31227100  0.50000000  1
  Li  Li7  1  0.25000000  0.06227100  0.25000000  1
  Ni  Ni8  1  0.75000000  0.68696500  0.75000000  1
  Ni  Ni9  1  0.50000000  0.93696500  0.00000000  1
  Ni  Ni10  1  0.75000000  0.18696500  0.25000000  1
  Ni  Ni11  1  0.50000000  0.43696500  0.50000000  1
  Ni  Ni12  1  0.25000000  0.18696500  0.75000000  1
  Ni  Ni13  1  0.00000000  0.43696500  0.00000000  1
  Ni  Ni14  1  0.25000000  0.68696500  0.25000000  1
  Ni  Ni15  1  0.00000000  0.93696500  0.50000000  1
  P  P16  1  0.50000000  0.62119000  0.00000000  1
  P  P17  1  0.75000000  0.37119000  0.75000000  1
  P  P18  1  0.50000000  0.12119000  0.50000000  1
  P  P19  1  0.75000000  0.87119000  0.25000000  1
  P  P20  1  0.00000000  0.12119000  0.00000000  1
  P  P21  1  0.25000000  0.87119000  0.75000000  1
  P  P22  1  0.00000000  0.62119000  0.50000000  1
  P  P23  1  0.25000000  0.37119000  0.25000000  1
  O  O24  1  0.17390750  0.02415150  0.07104800  1
  O  O25  1  0.57609250  0.27415150  0.82104800  1
  O  O26  1  0.82609250  0.02415150  0.92895200  1
  O  O27  1  0.92390750  0.27415150  0.67895200  1
  O  O28  1  0.35778850  0.72813300  0.08128750  1
  O  O29  1  0.39221150  0.97813300  0.83128750  1
  O  O30  1  0.64221150  0.72813300  0.91871250  1
  O  O31  1  0.10778850  0.97813300  0.66871250  1
  O  O32  1  0.17390750  0.52415150  0.57104800  1
  O  O33  1  0.57609250  0.77415150  0.32104800  1
  O  O34  1  0.82609250  0.52415150  0.42895200  1
  O  O35  1  0.92390750  0.77415150  0.17895200  1
  O  O36  1  0.35778850  0.22813300  0.58128750  1
  O  O37  1  0.39221150  0.47813300  0.33128750  1
  O  O38  1  0.64221150  0.22813300  0.41871250  1
  O  O39  1  0.10778850  0.47813300  0.16871250  1
  O  O40  1  0.67390750  0.52415150  0.07104800  1
  O  O41  1  0.07609250  0.77415150  0.82104800  1
  O  O42  1  0.32609250  0.52415150  0.92895200  1
  O  O43  1  0.42390750  0.77415150  0.67895200  1
  O  O44  1  0.85778850  0.22813300  0.08128750  1
  O  O45  1  0.89221150  0.47813300  0.83128750  1
  O  O46  1  0.14221150  0.22813300  0.91871250  1
  O  O47  1  0.60778850  0.47813300  0.66871250  1
  O  O48  1  0.67390750  0.02415150  0.57104800  1
  O  O49  1  0.07609250  0.27415150  0.32104800  1
  O  O50  1  0.32609250  0.02415150  0.42895200  1
  O  O51  1  0.42390750  0.27415150  0.17895200  1
  O  O52  1  0.85778850  0.72813300  0.58128750  1
  O  O53  1  0.89221150  0.97813300  0.33128750  1
  O  O54  1  0.14221150  0.72813300  0.41871250  1
  O  O55  1  0.60778850  0.97813300  0.16871250  1
