# generated using pymatgen
data_Li3TiMn2O6
_symmetry_space_group_name_H-M   'P 1'
_cell_length_a   13.73218287
_cell_length_b   2.96736936
_cell_length_c   5.94848644
_cell_angle_alpha   90.00000000
_cell_angle_beta   102.06076158
_cell_angle_gamma   90.00000000
_symmetry_Int_Tables_number   1
_chemical_formula_structural   Li3TiMn2O6
_chemical_formula_sum   'Li6 Ti2 Mn4 O12'
_cell_volume   237.04123712
_cell_formula_units_Z   2
loop_
 _symmetry_equiv_pos_site_id
 _symmetry_equiv_pos_as_xyz
  1  'x, y, z'
loop_
 _atom_site_type_symbol
 _atom_site_label
 _atom_site_symmetry_multiplicity
 _atom_site_fract_x
 _atom_site_fract_y
 _atom_site_fract_z
 _atom_site_occupancy
  Li  Li0  1  0.50000000  0.50000000  0.00000000  1
  Li  Li1  1  0.66045300  0.00000000  0.32563100  1
  Li  Li2  1  0.33954700  0.00000000  0.67436900  1
  Li  Li3  1  0.00000000  0.00000000  0.00000000  1
  Li  Li4  1  0.16045300  0.50000000  0.32563100  1
  Li  Li5  1  0.83954700  0.50000000  0.67436900  1
  Ti  Ti6  1  0.50000000  0.50000000  0.50000000  1
  Ti  Ti7  1  0.00000000  0.00000000  0.50000000  1
  Mn  Mn8  1  0.33132750  0.00000000  0.15841600  1
  Mn  Mn9  1  0.16867250  0.50000000  0.84158400  1
  Mn  Mn10  1  0.83132750  0.50000000  0.15841600  1
  Mn  Mn11  1  0.66867250  0.00000000  0.84158400  1
  O  O12  1  0.64980000  0.50000000  0.58873500  1
  O  O13  1  0.35020000  0.50000000  0.41126500  1
  O  O14  1  0.33544300  0.50000000  0.92607300  1
  O  O15  1  0.66455700  0.50000000  0.07392700  1
  O  O16  1  0.50443050  0.00000000  0.27785400  1
  O  O17  1  0.49556950  0.00000000  0.72214600  1
  O  O18  1  0.14980000  0.00000000  0.58873500  1
  O  O19  1  0.85020000  0.00000000  0.41126500  1
  O  O20  1  0.83544300  0.00000000  0.92607300  1
  O  O21  1  0.16455700  0.00000000  0.07392700  1
  O  O22  1  0.00443050  0.50000000  0.27785400  1
  O  O23  1  0.99556950  0.50000000  0.72214600  1
