# generated using pymatgen
data_Ce8Fe8As8O7F
_symmetry_space_group_name_H-M   'P 1'
_cell_length_a   7.95222107
_cell_length_b   7.95222107
_cell_length_c   17.88098581
_cell_angle_alpha   90.00000000
_cell_angle_beta   90.00000000
_cell_angle_gamma   90.00000000
_symmetry_Int_Tables_number   1
_chemical_formula_structural   Ce8Fe8As8O7F
_chemical_formula_sum   'Ce16 Fe16 As16 O14 F2'
_cell_volume   1130.75456227
_cell_formula_units_Z   2
loop_
 _symmetry_equiv_pos_site_id
 _symmetry_equiv_pos_as_xyz
  1  'x, y, z'
loop_
 _atom_site_type_symbol
 _atom_site_label
 _atom_site_symmetry_multiplicity
 _atom_site_fract_x
 _atom_site_fract_y
 _atom_site_fract_z
 _atom_site_occupancy
  Ce  Ce0  1  0.00000000  0.26058300  0.07407300  1
  Ce  Ce1  1  0.50000000  0.25003700  0.06948200  1
  Ce  Ce2  1  0.00000000  0.73941700  0.07407300  1
  Ce  Ce3  1  0.50000000  0.74996300  0.06948200  1
  Ce  Ce4  1  0.24996300  0.00000000  0.43051800  1
  Ce  Ce5  1  0.75003700  0.00000000  0.43051800  1
  Ce  Ce6  1  0.23941700  0.50000000  0.42592700  1
  Ce  Ce7  1  0.76058300  0.50000000  0.42592700  1
  Ce  Ce8  1  0.50000000  0.76058300  0.57407300  1
  Ce  Ce9  1  0.00000000  0.75003700  0.56948200  1
  Ce  Ce10  1  0.50000000  0.23941700  0.57407300  1
  Ce  Ce11  1  0.00000000  0.24996300  0.56948200  1
  Ce  Ce12  1  0.74996300  0.50000000  0.93051800  1
  Ce  Ce13  1  0.25003700  0.50000000  0.93051800  1
  Ce  Ce14  1  0.73941700  0.00000000  0.92592700  1
  Ce  Ce15  1  0.26058300  0.00000000  0.92592700  1
  Fe  Fe16  1  0.50000000  0.50000000  0.25046600  1
  Fe  Fe17  1  0.00000000  0.50000000  0.25000000  1
  Fe  Fe18  1  0.74651400  0.75348600  0.25000000  1
  Fe  Fe19  1  0.25348600  0.75348600  0.25000000  1
  Fe  Fe20  1  0.50000000  0.00000000  0.25000000  1
  Fe  Fe21  1  0.00000000  0.00000000  0.24953400  1
  Fe  Fe22  1  0.74651400  0.24651400  0.25000000  1
  Fe  Fe23  1  0.25348600  0.24651400  0.25000000  1
  Fe  Fe24  1  0.00000000  0.00000000  0.75046600  1
  Fe  Fe25  1  0.50000000  0.00000000  0.75000000  1
  Fe  Fe26  1  0.24651400  0.25348600  0.75000000  1
  Fe  Fe27  1  0.75348600  0.25348600  0.75000000  1
  Fe  Fe28  1  0.00000000  0.50000000  0.75000000  1
  Fe  Fe29  1  0.50000000  0.50000000  0.74953400  1
  Fe  Fe30  1  0.24651400  0.74651400  0.75000000  1
  Fe  Fe31  1  0.75348600  0.74651400  0.75000000  1
  As  As32  1  0.74964200  0.50000000  0.15708000  1
  As  As33  1  0.25035800  0.50000000  0.15708000  1
  As  As34  1  0.50000000  0.74907100  0.34485600  1
  As  As35  1  0.00000000  0.75035800  0.34292000  1
  As  As36  1  0.75092900  0.00000000  0.15514400  1
  As  As37  1  0.24907100  0.00000000  0.15514400  1
  As  As38  1  0.50000000  0.25092900  0.34485600  1
  As  As39  1  0.00000000  0.24964200  0.34292000  1
  As  As40  1  0.24964200  0.00000000  0.65708000  1
  As  As41  1  0.75035800  0.00000000  0.65708000  1
  As  As42  1  0.00000000  0.24907100  0.84485600  1
  As  As43  1  0.50000000  0.25035800  0.84292000  1
  As  As44  1  0.25092900  0.50000000  0.65514400  1
  As  As45  1  0.74907100  0.50000000  0.65514400  1
  As  As46  1  0.00000000  0.75092900  0.84485600  1
  As  As47  1  0.50000000  0.74964200  0.84292000  1
  O  O48  1  0.75297400  0.24702600  0.00000000  1
  O  O49  1  0.24702600  0.24702600  0.00000000  1
  O  O50  1  0.00000000  0.50000000  0.00142750  1
  O  O51  1  0.50000000  0.50000000  0.00000000  1
  O  O52  1  0.75297400  0.75297400  0.00000000  1
  O  O53  1  0.24702600  0.75297400  0.00000000  1
  O  O54  1  0.00000000  0.50000000  0.49857250  1
  O  O55  1  0.25297400  0.74702600  0.50000000  1
  O  O56  1  0.74702600  0.74702600  0.50000000  1
  O  O57  1  0.50000000  0.00000000  0.50142750  1
  O  O58  1  0.00000000  0.00000000  0.50000000  1
  O  O59  1  0.25297400  0.25297400  0.50000000  1
  O  O60  1  0.74702600  0.25297400  0.50000000  1
  O  O61  1  0.50000000  0.00000000  0.99857250  1
  F  F62  1  0.00000000  0.00000000  0.00000000  1
  F  F63  1  0.50000000  0.50000000  0.50000000  1
