# generated using pymatgen
data_Na2Li4Ni2C4SO16
_symmetry_space_group_name_H-M   'P 1'
_cell_length_a   13.19156800
_cell_length_b   13.76243000
_cell_length_c   13.84006600
_cell_angle_alpha   90.00000000
_cell_angle_beta   90.00000000
_cell_angle_gamma   90.00000000
_symmetry_Int_Tables_number   1
_chemical_formula_structural   Na2Li4Ni2C4SO16
_chemical_formula_sum   'Na16 Li32 Ni16 C32 S8 O128'
_cell_volume   2512.63673384
_cell_formula_units_Z   8
loop_
 _symmetry_equiv_pos_site_id
 _symmetry_equiv_pos_as_xyz
  1  'x, y, z'
loop_
 _atom_site_type_symbol
 _atom_site_label
 _atom_site_symmetry_multiplicity
 _atom_site_fract_x
 _atom_site_fract_y
 _atom_site_fract_z
 _atom_site_occupancy
  Na  Na0  1  0.75000000  0.25000000  0.02584200  1
  Na  Na1  1  0.00000000  0.00000000  0.27584200  1
  Na  Na2  1  0.75000000  0.25000000  0.47415800  1
  Na  Na3  1  0.50000000  0.00000000  0.22415800  1
  Na  Na4  1  0.75000000  0.75000000  0.52584200  1
  Na  Na5  1  0.00000000  0.50000000  0.77584200  1
  Na  Na6  1  0.75000000  0.75000000  0.97415800  1
  Na  Na7  1  0.50000000  0.50000000  0.72415800  1
  Na  Na8  1  0.25000000  0.25000000  0.52584200  1
  Na  Na9  1  0.50000000  0.00000000  0.77584200  1
  Na  Na10  1  0.25000000  0.25000000  0.97415800  1
  Na  Na11  1  0.00000000  0.00000000  0.72415800  1
  Na  Na12  1  0.25000000  0.75000000  0.02584200  1
  Na  Na13  1  0.50000000  0.50000000  0.27584200  1
  Na  Na14  1  0.25000000  0.75000000  0.47415800  1
  Na  Na15  1  0.00000000  0.50000000  0.22415800  1
  Li  Li16  1  0.47366350  0.79496800  0.13215650  1
  Li  Li17  1  0.77633650  0.04496800  0.38215650  1
  Li  Li18  1  0.02633650  0.79496800  0.36784350  1
  Li  Li19  1  0.72366350  0.04496800  0.11784350  1
  Li  Li20  1  0.52633650  0.20503200  0.13215650  1
  Li  Li21  1  0.22366350  0.95503200  0.38215650  1
  Li  Li22  1  0.97366350  0.20503200  0.36784350  1
  Li  Li23  1  0.27633650  0.95503200  0.11784350  1
  Li  Li24  1  0.47366350  0.29496800  0.63215650  1
  Li  Li25  1  0.77633650  0.54496800  0.88215650  1
  Li  Li26  1  0.02633650  0.29496800  0.86784350  1
  Li  Li27  1  0.72366350  0.54496800  0.61784350  1
  Li  Li28  1  0.52633650  0.70503200  0.63215650  1
  Li  Li29  1  0.22366350  0.45503200  0.88215650  1
  Li  Li30  1  0.97366350  0.70503200  0.86784350  1
  Li  Li31  1  0.27633650  0.45503200  0.61784350  1
  Li  Li32  1  0.97366350  0.79496800  0.63215650  1
  Li  Li33  1  0.27633650  0.04496800  0.88215650  1
  Li  Li34  1  0.52633650  0.79496800  0.86784350  1
  Li  Li35  1  0.22366350  0.04496800  0.61784350  1
  Li  Li36  1  0.02633650  0.20503200  0.63215650  1
  Li  Li37  1  0.72366350  0.95503200  0.88215650  1
  Li  Li38  1  0.47366350  0.20503200  0.86784350  1
  Li  Li39  1  0.77633650  0.95503200  0.61784350  1
  Li  Li40  1  0.97366350  0.29496800  0.13215650  1
  Li  Li41  1  0.27633650  0.54496800  0.38215650  1
  Li  Li42  1  0.52633650  0.29496800  0.36784350  1
  Li  Li43  1  0.22366350  0.54496800  0.11784350  1
  Li  Li44  1  0.02633650  0.70503200  0.13215650  1
  Li  Li45  1  0.72366350  0.45503200  0.38215650  1
  Li  Li46  1  0.47366350  0.70503200  0.36784350  1
  Li  Li47  1  0.77633650  0.45503200  0.11784350  1
  Ni  Ni48  1  0.87500000  0.62500000  0.37500000  1
  Ni  Ni49  1  0.87500000  0.87500000  0.12500000  1
  Ni  Ni50  1  0.62500000  0.87500000  0.37500000  1
  Ni  Ni51  1  0.62500000  0.62500000  0.12500000  1
  Ni  Ni52  1  0.87500000  0.12500000  0.87500000  1
  Ni  Ni53  1  0.87500000  0.37500000  0.62500000  1
  Ni  Ni54  1  0.62500000  0.37500000  0.87500000  1
  Ni  Ni55  1  0.62500000  0.12500000  0.62500000  1
  Ni  Ni56  1  0.37500000  0.62500000  0.87500000  1
  Ni  Ni57  1  0.37500000  0.87500000  0.62500000  1
  Ni  Ni58  1  0.12500000  0.87500000  0.87500000  1
  Ni  Ni59  1  0.12500000  0.62500000  0.62500000  1
  Ni  Ni60  1  0.37500000  0.12500000  0.37500000  1
  Ni  Ni61  1  0.37500000  0.37500000  0.12500000  1
  Ni  Ni62  1  0.12500000  0.37500000  0.37500000  1
  Ni  Ni63  1  0.12500000  0.12500000  0.12500000  1
  C  C64  1  0.90167250  0.09434100  0.09152250  1
  C  C65  1  0.84832750  0.84434100  0.34152250  1
  C  C66  1  0.59832750  0.40565900  0.09152250  1
  C  C67  1  0.59832750  0.09434100  0.40847750  1
  C  C68  1  0.15167250  0.15565900  0.34152250  1
  C  C69  1  0.65167250  0.84434100  0.15847750  1
  C  C70  1  0.90167250  0.40565900  0.40847750  1
  C  C71  1  0.34832750  0.15565900  0.15847750  1
  C  C72  1  0.90167250  0.59434100  0.59152250  1
  C  C73  1  0.84832750  0.34434100  0.84152250  1
  C  C74  1  0.59832750  0.90565900  0.59152250  1
  C  C75  1  0.59832750  0.59434100  0.90847750  1
  C  C76  1  0.15167250  0.65565900  0.84152250  1
  C  C77  1  0.65167250  0.34434100  0.65847750  1
  C  C78  1  0.90167250  0.90565900  0.90847750  1
  C  C79  1  0.34832750  0.65565900  0.65847750  1
  C  C80  1  0.40167250  0.09434100  0.59152250  1
  C  C81  1  0.34832750  0.84434100  0.84152250  1
  C  C82  1  0.09832750  0.40565900  0.59152250  1
  C  C83  1  0.09832750  0.09434100  0.90847750  1
  C  C84  1  0.65167250  0.15565900  0.84152250  1
  C  C85  1  0.15167250  0.84434100  0.65847750  1
  C  C86  1  0.40167250  0.40565900  0.90847750  1
  C  C87  1  0.84832750  0.15565900  0.65847750  1
  C  C88  1  0.40167250  0.59434100  0.09152250  1
  C  C89  1  0.34832750  0.34434100  0.34152250  1
  C  C90  1  0.09832750  0.90565900  0.09152250  1
  C  C91  1  0.09832750  0.59434100  0.40847750  1
  C  C92  1  0.65167250  0.65565900  0.34152250  1
  C  C93  1  0.15167250  0.34434100  0.15847750  1
  C  C94  1  0.40167250  0.90565900  0.40847750  1
  C  C95  1  0.84832750  0.65565900  0.15847750  1
  S  S96  1  0.50000000  0.00000000  0.00000000  1
  S  S97  1  0.75000000  0.25000000  0.25000000  1
  S  S98  1  0.50000000  0.50000000  0.50000000  1
  S  S99  1  0.75000000  0.75000000  0.75000000  1
  S  S100  1  0.00000000  0.00000000  0.50000000  1
  S  S101  1  0.25000000  0.25000000  0.75000000  1
  S  S102  1  0.00000000  0.50000000  0.00000000  1
  S  S103  1  0.25000000  0.75000000  0.25000000  1
  O  O104  1  0.47460450  0.65563050  0.10104100  1
  O  O105  1  0.77539550  0.90563050  0.35104100  1
  O  O106  1  0.85949900  0.77282350  0.40105750  1
  O  O107  1  0.89050100  0.02282350  0.15105750  1
  O  O108  1  0.83361800  0.10604550  0.02447350  1
  O  O109  1  0.56507950  0.06249500  0.06331050  1
  O  O110  1  0.14050100  0.22717650  0.40105750  1
  O  O111  1  0.91638200  0.85604550  0.27447350  1
  O  O112  1  0.68492050  0.31249500  0.31331050  1
  O  O113  1  0.10949900  0.97717650  0.15105750  1
  O  O114  1  0.66638200  0.10604550  0.47552650  1
  O  O115  1  0.58361800  0.85604550  0.22552650  1
  O  O116  1  0.02539550  0.65563050  0.39895900  1
  O  O117  1  0.72460450  0.90563050  0.14895900  1
  O  O118  1  0.43492050  0.93750500  0.06331050  1
  O  O119  1  0.93492050  0.06249500  0.43668950  1
  O  O120  1  0.81507950  0.18750500  0.31331050  1
  O  O121  1  0.81507950  0.31249500  0.18668950  1
  O  O122  1  0.52539550  0.34436950  0.10104100  1
  O  O123  1  0.22460450  0.09436950  0.35104100  1
  O  O124  1  0.16638200  0.89395450  0.02447350  1
  O  O125  1  0.08361800  0.14395450  0.27447350  1
  O  O126  1  0.64050100  0.77282350  0.09894250  1
  O  O127  1  0.06507950  0.93750500  0.43668950  1
  O  O128  1  0.33361800  0.89395450  0.47552650  1
  O  O129  1  0.60949900  0.02282350  0.34894250  1
  O  O130  1  0.68492050  0.18750500  0.18668950  1
  O  O131  1  0.41638200  0.14395450  0.22552650  1
  O  O132  1  0.35949900  0.22717650  0.09894250  1
  O  O133  1  0.39050100  0.97717650  0.34894250  1
  O  O134  1  0.97460450  0.34436950  0.39895900  1
  O  O135  1  0.27539550  0.09436950  0.14895900  1
  O  O136  1  0.47460450  0.15563050  0.60104100  1
  O  O137  1  0.77539550  0.40563050  0.85104100  1
  O  O138  1  0.85949900  0.27282350  0.90105750  1
  O  O139  1  0.89050100  0.52282350  0.65105750  1
  O  O140  1  0.83361800  0.60604550  0.52447350  1
  O  O141  1  0.56507950  0.56249500  0.56331050  1
  O  O142  1  0.14050100  0.72717650  0.90105750  1
  O  O143  1  0.91638200  0.35604550  0.77447350  1
  O  O144  1  0.68492050  0.81249500  0.81331050  1
  O  O145  1  0.10949900  0.47717650  0.65105750  1
  O  O146  1  0.66638200  0.60604550  0.97552650  1
  O  O147  1  0.58361800  0.35604550  0.72552650  1
  O  O148  1  0.02539550  0.15563050  0.89895900  1
  O  O149  1  0.72460450  0.40563050  0.64895900  1
  O  O150  1  0.43492050  0.43750500  0.56331050  1
  O  O151  1  0.93492050  0.56249500  0.93668950  1
  O  O152  1  0.81507950  0.68750500  0.81331050  1
  O  O153  1  0.81507950  0.81249500  0.68668950  1
  O  O154  1  0.52539550  0.84436950  0.60104100  1
  O  O155  1  0.22460450  0.59436950  0.85104100  1
  O  O156  1  0.16638200  0.39395450  0.52447350  1
  O  O157  1  0.08361800  0.64395450  0.77447350  1
  O  O158  1  0.64050100  0.27282350  0.59894250  1
  O  O159  1  0.06507950  0.43750500  0.93668950  1
  O  O160  1  0.33361800  0.39395450  0.97552650  1
  O  O161  1  0.60949900  0.52282350  0.84894250  1
  O  O162  1  0.68492050  0.68750500  0.68668950  1
  O  O163  1  0.41638200  0.64395450  0.72552650  1
  O  O164  1  0.35949900  0.72717650  0.59894250  1
  O  O165  1  0.39050100  0.47717650  0.84894250  1
  O  O166  1  0.97460450  0.84436950  0.89895900  1
  O  O167  1  0.27539550  0.59436950  0.64895900  1
  O  O168  1  0.97460450  0.65563050  0.60104100  1
  O  O169  1  0.27539550  0.90563050  0.85104100  1
  O  O170  1  0.35949900  0.77282350  0.90105750  1
  O  O171  1  0.39050100  0.02282350  0.65105750  1
  O  O172  1  0.33361800  0.10604550  0.52447350  1
  O  O173  1  0.06507950  0.06249500  0.56331050  1
  O  O174  1  0.64050100  0.22717650  0.90105750  1
  O  O175  1  0.41638200  0.85604550  0.77447350  1
  O  O176  1  0.18492050  0.31249500  0.81331050  1
  O  O177  1  0.60949900  0.97717650  0.65105750  1
  O  O178  1  0.16638200  0.10604550  0.97552650  1
  O  O179  1  0.08361800  0.85604550  0.72552650  1
  O  O180  1  0.52539550  0.65563050  0.89895900  1
  O  O181  1  0.22460450  0.90563050  0.64895900  1
  O  O182  1  0.93492050  0.93750500  0.56331050  1
  O  O183  1  0.43492050  0.06249500  0.93668950  1
  O  O184  1  0.31507950  0.18750500  0.81331050  1
  O  O185  1  0.31507950  0.31249500  0.68668950  1
  O  O186  1  0.02539550  0.34436950  0.60104100  1
  O  O187  1  0.72460450  0.09436950  0.85104100  1
  O  O188  1  0.66638200  0.89395450  0.52447350  1
  O  O189  1  0.58361800  0.14395450  0.77447350  1
  O  O190  1  0.14050100  0.77282350  0.59894250  1
  O  O191  1  0.56507950  0.93750500  0.93668950  1
  O  O192  1  0.83361800  0.89395450  0.97552650  1
  O  O193  1  0.10949900  0.02282350  0.84894250  1
  O  O194  1  0.18492050  0.18750500  0.68668950  1
  O  O195  1  0.91638200  0.14395450  0.72552650  1
  O  O196  1  0.85949900  0.22717650  0.59894250  1
  O  O197  1  0.89050100  0.97717650  0.84894250  1
  O  O198  1  0.47460450  0.34436950  0.89895900  1
  O  O199  1  0.77539550  0.09436950  0.64895900  1
  O  O200  1  0.97460450  0.15563050  0.10104100  1
  O  O201  1  0.27539550  0.40563050  0.35104100  1
  O  O202  1  0.35949900  0.27282350  0.40105750  1
  O  O203  1  0.39050100  0.52282350  0.15105750  1
  O  O204  1  0.33361800  0.60604550  0.02447350  1
  O  O205  1  0.06507950  0.56249500  0.06331050  1
  O  O206  1  0.64050100  0.72717650  0.40105750  1
  O  O207  1  0.41638200  0.35604550  0.27447350  1
  O  O208  1  0.18492050  0.81249500  0.31331050  1
  O  O209  1  0.60949900  0.47717650  0.15105750  1
  O  O210  1  0.16638200  0.60604550  0.47552650  1
  O  O211  1  0.08361800  0.35604550  0.22552650  1
  O  O212  1  0.52539550  0.15563050  0.39895900  1
  O  O213  1  0.22460450  0.40563050  0.14895900  1
  O  O214  1  0.93492050  0.43750500  0.06331050  1
  O  O215  1  0.43492050  0.56249500  0.43668950  1
  O  O216  1  0.31507950  0.68750500  0.31331050  1
  O  O217  1  0.31507950  0.81249500  0.18668950  1
  O  O218  1  0.02539550  0.84436950  0.10104100  1
  O  O219  1  0.72460450  0.59436950  0.35104100  1
  O  O220  1  0.66638200  0.39395450  0.02447350  1
  O  O221  1  0.58361800  0.64395450  0.27447350  1
  O  O222  1  0.14050100  0.27282350  0.09894250  1
  O  O223  1  0.56507950  0.43750500  0.43668950  1
  O  O224  1  0.83361800  0.39395450  0.47552650  1
  O  O225  1  0.10949900  0.52282350  0.34894250  1
  O  O226  1  0.18492050  0.68750500  0.18668950  1
  O  O227  1  0.91638200  0.64395450  0.22552650  1
  O  O228  1  0.85949900  0.72717650  0.09894250  1
  O  O229  1  0.89050100  0.47717650  0.34894250  1
  O  O230  1  0.47460450  0.84436950  0.39895900  1
  O  O231  1  0.77539550  0.59436950  0.14895900  1
