# generated using pymatgen
data_LiTiNiO4
_symmetry_space_group_name_H-M   'P 1'
_cell_length_a   6.00810000
_cell_length_b   6.01368857
_cell_length_c   8.02066590
_cell_angle_alpha   90.00000000
_cell_angle_beta   90.00000000
_cell_angle_gamma   90.00000000
_symmetry_Int_Tables_number   1
_chemical_formula_structural   LiTiNiO4
_chemical_formula_sum   'Li4 Ti4 Ni4 O16'
_cell_volume   289.79341458
_cell_formula_units_Z   4
loop_
 _symmetry_equiv_pos_site_id
 _symmetry_equiv_pos_as_xyz
  1  'x, y, z'
loop_
 _atom_site_type_symbol
 _atom_site_label
 _atom_site_symmetry_multiplicity
 _atom_site_fract_x
 _atom_site_fract_y
 _atom_site_fract_z
 _atom_site_occupancy
  Li  Li0  1  0.50000000  0.25000000  0.87828400  1
  Li  Li1  1  0.50000000  0.75000000  0.12171600  1
  Li  Li2  1  0.00000000  0.75000000  0.37828400  1
  Li  Li3  1  0.00000000  0.25000000  0.62171600  1
  Ti  Ti4  1  0.00000000  0.00000000  0.00000000  1
  Ti  Ti5  1  0.50000000  0.00000000  0.50000000  1
  Ti  Ti6  1  0.50000000  0.50000000  0.50000000  1
  Ti  Ti7  1  0.00000000  0.50000000  0.00000000  1
  Ni  Ni8  1  0.25000000  0.75000000  0.75000000  1
  Ni  Ni9  1  0.75000000  0.75000000  0.75000000  1
  Ni  Ni10  1  0.75000000  0.25000000  0.25000000  1
  Ni  Ni11  1  0.25000000  0.25000000  0.25000000  1
  O  O12  1  0.77785775  0.25000000  0.01292225  1
  O  O13  1  0.72214225  0.75000000  0.51292225  1
  O  O14  1  0.27785775  0.25000000  0.48707775  1
  O  O15  1  0.22214225  0.75000000  0.98707775  1
  O  O16  1  0.50000000  0.51952400  0.73840800  1
  O  O17  1  0.50000000  0.98047600  0.73840800  1
  O  O18  1  0.50000000  0.48047600  0.26159200  1
  O  O19  1  0.50000000  0.01952400  0.26159200  1
  O  O20  1  0.27785775  0.75000000  0.51292225  1
  O  O21  1  0.22214225  0.25000000  0.01292225  1
  O  O22  1  0.77785775  0.75000000  0.98707775  1
  O  O23  1  0.72214225  0.25000000  0.48707775  1
  O  O24  1  0.00000000  0.01952400  0.23840800  1
  O  O25  1  0.00000000  0.48047600  0.23840800  1
  O  O26  1  0.00000000  0.98047600  0.76159200  1
  O  O27  1  0.00000000  0.51952400  0.76159200  1
