# generated using pymatgen
data_FeOF
_symmetry_space_group_name_H-M   'P 1'
_cell_length_a   9.47954700
_cell_length_b   3.10702500
_cell_length_c   14.21318862
_cell_angle_alpha   90.00000000
_cell_angle_beta   90.28482349
_cell_angle_gamma   90.00000000
_symmetry_Int_Tables_number   1
_chemical_formula_structural   FeOF
_chemical_formula_sum   'Fe12 O12 F12'
_cell_volume   418.61856551
_cell_formula_units_Z   12
loop_
 _symmetry_equiv_pos_site_id
 _symmetry_equiv_pos_as_xyz
  1  'x, y, z'
loop_
 _atom_site_type_symbol
 _atom_site_label
 _atom_site_symmetry_multiplicity
 _atom_site_fract_x
 _atom_site_fract_y
 _atom_site_fract_z
 _atom_site_occupancy
  Fe  Fe0  1  0.00610100  0.00000000  0.00531900  1
  Fe  Fe1  1  0.01849400  0.00000000  0.33065100  1
  Fe  Fe2  1  0.00983200  0.00000000  0.67352000  1
  Fe  Fe3  1  0.22959800  0.50000000  0.16307700  1
  Fe  Fe4  1  0.25148300  0.50000000  0.48299300  1
  Fe  Fe5  1  0.22891500  0.50000000  0.83828100  1
  Fe  Fe6  1  0.50055900  0.00000000  0.34115100  1
  Fe  Fe7  1  0.51820700  0.00000000  0.00213400  1
  Fe  Fe8  1  0.51758100  0.00000000  0.66543400  1
  Fe  Fe9  1  0.75374800  0.50000000  0.15072300  1
  Fe  Fe10  1  0.72975900  0.50000000  0.49645600  1
  Fe  Fe11  1  0.72482500  0.50000000  0.83540600  1
  O  O12  1  0.09866100  0.50000000  0.27049000  1
  O  O13  1  0.09590400  0.50000000  0.93425800  1
  O  O14  1  0.15793600  0.00000000  0.10188400  1
  O  O15  1  0.14937200  0.00000000  0.76600200  1
  O  O16  1  0.14884900  0.00000000  0.43999000  1
  O  O17  1  0.40665100  0.50000000  0.39649500  1
  O  O18  1  0.59369600  0.50000000  0.93728600  1
  O  O19  1  0.59666400  0.50000000  0.60113500  1
  O  O20  1  0.65032200  0.00000000  0.10535200  1
  O  O21  1  0.65939200  0.00000000  0.43164000  1
  O  O22  1  0.65199400  0.00000000  0.76845700  1
  O  O23  1  0.90429200  0.50000000  0.06353300  1
  F  F24  1  0.09671500  0.50000000  0.60256700  1
  F  F25  1  0.35588800  0.00000000  0.22980500  1
  F  F26  1  0.34306900  0.00000000  0.56957200  1
  F  F27  1  0.34710000  0.00000000  0.90009500  1
  F  F28  1  0.40134800  0.50000000  0.06583500  1
  F  F29  1  0.39914000  0.50000000  0.73325400  1
  F  F30  1  0.60051400  0.50000000  0.26735900  1
  F  F31  1  0.84736500  0.00000000  0.23663900  1
  F  F32  1  0.84617200  0.00000000  0.89304600  1
  F  F33  1  0.85649400  0.00000000  0.56863400  1
  F  F34  1  0.90272200  0.50000000  0.40161600  1
  F  F35  1  0.90063400  0.50000000  0.72990900  1
