# generated using pymatgen
data_LiNi4(PO4)3
_symmetry_space_group_name_H-M   'P 1'
_cell_length_a   6.38152200
_cell_length_b   14.77886600
_cell_length_c   9.92531200
_cell_angle_alpha   90.00000000
_cell_angle_beta   90.00000000
_cell_angle_gamma   90.00000000
_symmetry_Int_Tables_number   1
_chemical_formula_structural   LiNi4(PO4)3
_chemical_formula_sum   'Li4 Ni16 P12 O48'
_cell_volume   936.07263599
_cell_formula_units_Z   4
loop_
 _symmetry_equiv_pos_site_id
 _symmetry_equiv_pos_as_xyz
  1  'x, y, z'
loop_
 _atom_site_type_symbol
 _atom_site_label
 _atom_site_symmetry_multiplicity
 _atom_site_fract_x
 _atom_site_fract_y
 _atom_site_fract_z
 _atom_site_occupancy
  Li  Li0  1  0.50000000  0.47792400  0.74606100  1
  Li  Li1  1  0.00000000  0.02207600  0.24606100  1
  Li  Li2  1  0.00000000  0.97792400  0.74606100  1
  Li  Li3  1  0.50000000  0.52207600  0.24606100  1
  Ni  Ni4  1  0.00000000  0.37413200  0.56012000  1
  Ni  Ni5  1  0.74684350  0.19949650  0.74962800  1
  Ni  Ni6  1  0.25315650  0.19949650  0.74962800  1
  Ni  Ni7  1  0.00000000  0.36802800  0.93800300  1
  Ni  Ni8  1  0.50000000  0.12586800  0.06012000  1
  Ni  Ni9  1  0.24684350  0.30050350  0.24962800  1
  Ni  Ni10  1  0.75315650  0.30050350  0.24962800  1
  Ni  Ni11  1  0.50000000  0.13197200  0.43800300  1
  Ni  Ni12  1  0.50000000  0.87413200  0.56012000  1
  Ni  Ni13  1  0.24684350  0.69949650  0.74962800  1
  Ni  Ni14  1  0.75315650  0.69949650  0.74962800  1
  Ni  Ni15  1  0.50000000  0.86802800  0.93800300  1
  Ni  Ni16  1  0.00000000  0.62586800  0.06012000  1
  Ni  Ni17  1  0.74684350  0.80050350  0.24962800  1
  Ni  Ni18  1  0.25315650  0.80050350  0.24962800  1
  Ni  Ni19  1  0.00000000  0.63197200  0.43800300  1
  P  P20  1  0.50000000  0.31514600  0.53663500  1
  P  P21  1  0.50000000  0.02117500  0.79534900  1
  P  P22  1  0.50000000  0.31511600  0.96524100  1
  P  P23  1  0.00000000  0.18485400  0.03663500  1
  P  P24  1  0.00000000  0.47882500  0.29534900  1
  P  P25  1  0.00000000  0.18488400  0.46524100  1
  P  P26  1  0.00000000  0.81514600  0.53663500  1
  P  P27  1  0.00000000  0.52117500  0.79534900  1
  P  P28  1  0.00000000  0.81511600  0.96524100  1
  P  P29  1  0.50000000  0.68485400  0.03663500  1
  P  P30  1  0.50000000  0.97882500  0.29534900  1
  P  P31  1  0.50000000  0.68488400  0.46524100  1
  O  O32  1  0.30776800  0.36790100  0.57658100  1
  O  O33  1  0.69223200  0.36790100  0.57658100  1
  O  O34  1  0.50000000  0.21918500  0.61290300  1
  O  O35  1  0.00000000  0.21476400  0.61910700  1
  O  O36  1  0.70528950  0.06750050  0.74669900  1
  O  O37  1  0.29471050  0.06750050  0.74669900  1
  O  O38  1  0.00000000  0.42161100  0.74756400  1
  O  O39  1  0.00000000  0.21578300  0.88274500  1
  O  O40  1  0.50000000  0.21974100  0.88754400  1
  O  O41  1  0.30750150  0.36813150  0.92582600  1
  O  O42  1  0.69249850  0.36813150  0.92582600  1
  O  O43  1  0.50000000  0.01166500  0.95148700  1
  O  O44  1  0.80776800  0.13209900  0.07658100  1
  O  O45  1  0.19223200  0.13209900  0.07658100  1
  O  O46  1  0.00000000  0.28081500  0.11290300  1
  O  O47  1  0.50000000  0.28523600  0.11910700  1
  O  O48  1  0.50000000  0.07838900  0.24756400  1
  O  O49  1  0.79471050  0.43249950  0.24669900  1
  O  O50  1  0.20528950  0.43249950  0.24669900  1
  O  O51  1  0.50000000  0.28421700  0.38274500  1
  O  O52  1  0.00000000  0.28025900  0.38754400  1
  O  O53  1  0.19249850  0.13186850  0.42582600  1
  O  O54  1  0.80750150  0.13186850  0.42582600  1
  O  O55  1  0.00000000  0.48833500  0.45148700  1
  O  O56  1  0.80776800  0.86790100  0.57658100  1
  O  O57  1  0.19223200  0.86790100  0.57658100  1
  O  O58  1  0.00000000  0.71918500  0.61290300  1
  O  O59  1  0.50000000  0.71476400  0.61910700  1
  O  O60  1  0.20528950  0.56750050  0.74669900  1
  O  O61  1  0.79471050  0.56750050  0.74669900  1
  O  O62  1  0.50000000  0.92161100  0.74756400  1
  O  O63  1  0.50000000  0.71578300  0.88274500  1
  O  O64  1  0.00000000  0.71974100  0.88754400  1
  O  O65  1  0.80750150  0.86813150  0.92582600  1
  O  O66  1  0.19249850  0.86813150  0.92582600  1
  O  O67  1  0.00000000  0.51166500  0.95148700  1
  O  O68  1  0.30776800  0.63209900  0.07658100  1
  O  O69  1  0.69223200  0.63209900  0.07658100  1
  O  O70  1  0.50000000  0.78081500  0.11290300  1
  O  O71  1  0.00000000  0.78523600  0.11910700  1
  O  O72  1  0.00000000  0.57838900  0.24756400  1
  O  O73  1  0.29471050  0.93249950  0.24669900  1
  O  O74  1  0.70528950  0.93249950  0.24669900  1
  O  O75  1  0.00000000  0.78421700  0.38274500  1
  O  O76  1  0.50000000  0.78025900  0.38754400  1
  O  O77  1  0.69249850  0.63186850  0.42582600  1
  O  O78  1  0.30750150  0.63186850  0.42582600  1
  O  O79  1  0.50000000  0.98833500  0.45148700  1
