# generated using pymatgen
data_Li2VOF3
_symmetry_space_group_name_H-M   'P 1'
_cell_length_a   10.29147438
_cell_length_b   6.07555339
_cell_length_c   5.97229639
_cell_angle_alpha   90.00000000
_cell_angle_beta   124.44334403
_cell_angle_gamma   90.00000000
_symmetry_Int_Tables_number   1
_chemical_formula_structural   Li2VOF3
_chemical_formula_sum   'Li8 V4 O4 F12'
_cell_volume   307.95931353
_cell_formula_units_Z   4
loop_
 _symmetry_equiv_pos_site_id
 _symmetry_equiv_pos_as_xyz
  1  'x, y, z'
loop_
 _atom_site_type_symbol
 _atom_site_label
 _atom_site_symmetry_multiplicity
 _atom_site_fract_x
 _atom_site_fract_y
 _atom_site_fract_z
 _atom_site_occupancy
  Li  Li0  1  0.50000000  0.00000000  0.00000000  1
  Li  Li1  1  0.50000000  0.00000000  0.50000000  1
  Li  Li2  1  0.12636875  0.00000000  0.40506125  1
  Li  Li3  1  0.87363125  0.00000000  0.59493875  1
  Li  Li4  1  0.00000000  0.50000000  0.00000000  1
  Li  Li5  1  0.00000000  0.50000000  0.50000000  1
  Li  Li6  1  0.62636875  0.50000000  0.40506125  1
  Li  Li7  1  0.37363125  0.50000000  0.59493875  1
  V  V8  1  0.75000000  0.75000000  0.00000000  1
  V  V9  1  0.25000000  0.75000000  0.00000000  1
  V  V10  1  0.25000000  0.25000000  0.00000000  1
  V  V11  1  0.75000000  0.25000000  0.00000000  1
  O  O12  1  0.74474825  0.00000000  0.19934475  1
  O  O13  1  0.25525175  0.00000000  0.80065525  1
  O  O14  1  0.24474825  0.50000000  0.19934475  1
  O  O15  1  0.75525175  0.50000000  0.80065525  1
  F  F16  1  0.74555775  0.00000000  0.75064375  1
  F  F17  1  0.25444225  0.00000000  0.24935625  1
  F  F18  1  0.51255475  0.23770375  0.75691825  1
  F  F19  1  0.51255475  0.76229625  0.75691825  1
  F  F20  1  0.48744525  0.23770375  0.24308175  1
  F  F21  1  0.48744525  0.76229625  0.24308175  1
  F  F22  1  0.24555775  0.50000000  0.75064375  1
  F  F23  1  0.75444225  0.50000000  0.24935625  1
  F  F24  1  0.01255475  0.73770375  0.75691825  1
  F  F25  1  0.01255475  0.26229625  0.75691825  1
  F  F26  1  0.98744525  0.73770375  0.24308175  1
  F  F27  1  0.98744525  0.26229625  0.24308175  1
