# generated using pymatgen
data_Li2MnNi3O8
_symmetry_space_group_name_H-M   'P 1'
_cell_length_a   5.79956394
_cell_length_b   5.79956394
_cell_length_c   14.08140747
_cell_angle_alpha   90.00000000
_cell_angle_beta   90.00000000
_cell_angle_gamma   120.00000000
_symmetry_Int_Tables_number   1
_chemical_formula_structural   Li2MnNi3O8
_chemical_formula_sum   'Li6 Mn3 Ni9 O24'
_cell_volume   410.17329319
_cell_formula_units_Z   3
loop_
 _symmetry_equiv_pos_site_id
 _symmetry_equiv_pos_as_xyz
  1  'x, y, z'
loop_
 _atom_site_type_symbol
 _atom_site_label
 _atom_site_symmetry_multiplicity
 _atom_site_fract_x
 _atom_site_fract_y
 _atom_site_fract_z
 _atom_site_occupancy
  Li  Li0  1  0.33333333  0.66666667  0.79234567  1
  Li  Li1  1  0.33333333  0.66666667  0.54098767  1
  Li  Li2  1  0.00000000  0.00000000  0.12567900  1
  Li  Li3  1  0.00000000  0.00000000  0.87432100  1
  Li  Li4  1  0.66666667  0.33333333  0.45901233  1
  Li  Li5  1  0.66666667  0.33333333  0.20765433  1
  Mn  Mn6  1  0.33333333  0.66666667  0.16666667  1
  Mn  Mn7  1  1.00000000  1.00000000  0.50000000  1
  Mn  Mn8  1  0.66666667  0.33333333  0.83333333  1
  Ni  Ni9  1  0.50000000  0.50000000  0.00000000  1
  Ni  Ni10  1  0.00000000  0.50000000  0.00000000  1
  Ni  Ni11  1  0.16666667  0.33333333  0.33333333  1
  Ni  Ni12  1  0.16666667  0.83333333  0.33333333  1
  Ni  Ni13  1  0.66666667  0.83333333  0.33333333  1
  Ni  Ni14  1  0.83333333  0.66666667  0.66666667  1
  Ni  Ni15  1  0.83333333  0.16666667  0.66666667  1
  Ni  Ni16  1  0.33333333  0.16666667  0.66666667  1
  Ni  Ni17  1  0.50000000  0.00000000  0.00000000  1
  O  O18  1  0.33333333  0.66666667  0.93090167  1
  O  O19  1  0.18430133  0.36860267  0.08114667  1
  O  O20  1  0.63139733  0.81569867  0.08114667  1
  O  O21  1  0.18430133  0.81569867  0.08114667  1
  O  O22  1  0.48236533  0.51763467  0.25218667  1
  O  O23  1  0.03526933  0.51763467  0.25218667  1
  O  O24  1  0.48236533  0.96473067  0.25218667  1
  O  O25  1  0.33333333  0.66666667  0.40243167  1
  O  O26  1  0.00000000  0.00000000  0.26423500  1
  O  O27  1  0.85096800  0.70193600  0.41448000  1
  O  O28  1  0.29806400  0.14903200  0.41448000  1
  O  O29  1  0.85096800  0.14903200  0.41448000  1
  O  O30  1  0.14903200  0.85096800  0.58552000  1
  O  O31  1  0.70193600  0.85096800  0.58552000  1
  O  O32  1  0.14903200  0.29806400  0.58552000  1
  O  O33  1  0.00000000  0.00000000  0.73576500  1
  O  O34  1  0.66666667  0.33333333  0.59756833  1
  O  O35  1  0.51763467  0.03526933  0.74781333  1
  O  O36  1  0.96473067  0.48236533  0.74781333  1
  O  O37  1  0.51763467  0.48236533  0.74781333  1
  O  O38  1  0.81569867  0.18430133  0.91885333  1
  O  O39  1  0.36860267  0.18430133  0.91885333  1
  O  O40  1  0.81569867  0.63139733  0.91885333  1
  O  O41  1  0.66666667  0.33333333  0.06909833  1
