# generated using pymatgen
data_Li4VNi3(PO4)4
_symmetry_space_group_name_H-M   'P 1'
_cell_length_a   4.74214800
_cell_length_b   5.98206300
_cell_length_c   10.22191361
_cell_angle_alpha   90.00000000
_cell_angle_beta   90.14473179
_cell_angle_gamma   90.00000000
_symmetry_Int_Tables_number   1
_chemical_formula_structural   Li4VNi3(PO4)4
_chemical_formula_sum   'Li4 V1 Ni3 P4 O16'
_cell_volume   289.97256298
_cell_formula_units_Z   1
loop_
 _symmetry_equiv_pos_site_id
 _symmetry_equiv_pos_as_xyz
  1  'x, y, z'
loop_
 _atom_site_type_symbol
 _atom_site_label
 _atom_site_symmetry_multiplicity
 _atom_site_fract_x
 _atom_site_fract_y
 _atom_site_fract_z
 _atom_site_occupancy
  Li  Li0  1  0.99913900  0.74862400  0.99699700  1
  Li  Li1  1  0.99913900  0.25137600  0.99699700  1
  Li  Li2  1  0.50032300  0.25056400  0.50216900  1
  Li  Li3  1  0.50032300  0.74943600  0.50216900  1
  V  V4  1  0.01989200  0.00000000  0.27486900  1
  Ni  Ni5  1  0.98129000  0.50000000  0.72404000  1
  Ni  Ni6  1  0.51957900  0.50000000  0.22349800  1
  Ni  Ni7  1  0.48007500  0.00000000  0.77602900  1
  P  P8  1  0.91463700  0.00000000  0.59667400  1
  P  P9  1  0.58454500  0.00000000  0.09184200  1
  P  P10  1  0.41664100  0.50000000  0.90560200  1
  P  P11  1  0.08603000  0.50000000  0.40677200  1
  O  O12  1  0.79391400  0.00000000  0.45570000  1
  O  O13  1  0.77465800  0.79353000  0.66730400  1
  O  O14  1  0.77465800  0.20647000  0.66730400  1
  O  O15  1  0.76080200  0.50000000  0.39951100  1
  O  O16  1  0.74015000  0.50000000  0.89981800  1
  O  O17  1  0.72196800  0.79207500  0.16272400  1
  O  O18  1  0.72196800  0.20792500  0.16272400  1
  O  O19  1  0.70243300  0.00000000  0.95036400  1
  O  O20  1  0.29995300  0.50000000  0.04796900  1
  O  O21  1  0.27512700  0.29429000  0.83453900  1
  O  O22  1  0.27512700  0.70571000  0.83453900  1
  O  O23  1  0.26194800  0.00000000  0.09537600  1
  O  O24  1  0.23848900  0.00000000  0.60159300  1
  O  O25  1  0.22853100  0.29673200  0.33649200  1
  O  O26  1  0.22853100  0.70326800  0.33649200  1
  O  O27  1  0.20012900  0.50000000  0.54988800  1
