# generated using pymatgen
data_Li2MnOF3
_symmetry_space_group_name_H-M   'P 1'
_cell_length_a   9.96074812
_cell_length_b   3.06420101
_cell_length_c   10.20559577
_cell_angle_alpha   90.00000000
_cell_angle_beta   102.17356898
_cell_angle_gamma   90.00000000
_symmetry_Int_Tables_number   1
_chemical_formula_structural   Li2MnOF3
_chemical_formula_sum   'Li8 Mn4 O4 F12'
_cell_volume   304.48803813
_cell_formula_units_Z   4
loop_
 _symmetry_equiv_pos_site_id
 _symmetry_equiv_pos_as_xyz
  1  'x, y, z'
loop_
 _atom_site_type_symbol
 _atom_site_label
 _atom_site_symmetry_multiplicity
 _atom_site_fract_x
 _atom_site_fract_y
 _atom_site_fract_z
 _atom_site_occupancy
  Li  Li0  1  0.00000000  0.50000000  0.50000000  1
  Li  Li1  1  0.00000000  0.50000000  0.00000000  1
  Li  Li2  1  0.27297350  0.00000000  0.11308775  1
  Li  Li3  1  0.22702650  0.50000000  0.88691225  1
  Li  Li4  1  0.50000000  0.00000000  0.50000000  1
  Li  Li5  1  0.50000000  0.00000000  0.00000000  1
  Li  Li6  1  0.77297350  0.50000000  0.11308775  1
  Li  Li7  1  0.72702650  0.00000000  0.88691225  1
  Mn  Mn8  1  0.25756300  0.00000000  0.62538175  1
  Mn  Mn9  1  0.24243700  0.50000000  0.37461825  1
  Mn  Mn10  1  0.75756300  0.50000000  0.62538175  1
  Mn  Mn11  1  0.74243700  0.00000000  0.37461825  1
  O  O12  1  0.14147150  0.00000000  0.45254775  1
  O  O13  1  0.35852850  0.50000000  0.54745225  1
  O  O14  1  0.64147150  0.50000000  0.45254775  1
  O  O15  1  0.85852850  0.00000000  0.54745225  1
  F  F16  1  0.12770900  0.00000000  0.95123575  1
  F  F17  1  0.37229100  0.50000000  0.04876425  1
  F  F18  1  0.35132175  0.00000000  0.80560625  1
  F  F19  1  0.14867825  0.50000000  0.19439375  1
  F  F20  1  0.36407250  0.00000000  0.32068775  1
  F  F21  1  0.13592750  0.50000000  0.67931225  1
  F  F22  1  0.62770900  0.50000000  0.95123575  1
  F  F23  1  0.87229100  0.00000000  0.04876425  1
  F  F24  1  0.85132175  0.50000000  0.80560625  1
  F  F25  1  0.64867825  0.00000000  0.19439375  1
  F  F26  1  0.86407250  0.50000000  0.32068775  1
  F  F27  1  0.63592750  0.00000000  0.67931225  1
