# generated using pymatgen
data_LiAlNiO3
_symmetry_space_group_name_H-M   'P 1'
_cell_length_a   5.23943623
_cell_length_b   5.32035872
_cell_length_c   5.41735753
_cell_angle_alpha   67.08636276
_cell_angle_beta   68.61452271
_cell_angle_gamma   65.86847976
_symmetry_Int_Tables_number   1
_chemical_formula_structural   LiAlNiO3
_chemical_formula_sum   'Li2 Al2 Ni2 O6'
_cell_volume   123.09041627
_cell_formula_units_Z   2
loop_
 _symmetry_equiv_pos_site_id
 _symmetry_equiv_pos_as_xyz
  1  'x, y, z'
loop_
 _atom_site_type_symbol
 _atom_site_label
 _atom_site_symmetry_multiplicity
 _atom_site_fract_x
 _atom_site_fract_y
 _atom_site_fract_z
 _atom_site_occupancy
  Li  Li0  1  0.56819350  0.92819500  0.75475050  1
  Li  Li1  1  0.43180650  0.07180500  0.24524950  1
  Al  Al2  1  0.25323850  0.58402150  0.41283700  1
  Al  Al3  1  0.74676150  0.41597850  0.58716300  1
  Ni  Ni4  1  0.91499800  0.24804300  0.09092300  1
  Ni  Ni5  1  0.08500200  0.75195700  0.90907700  1
  O  O6  1  0.57674150  0.27524800  0.42411750  1
  O  O7  1  0.42325850  0.72475200  0.57588250  1
  O  O8  1  0.94427100  0.57377200  0.71569600  1
  O  O9  1  0.05572900  0.42622800  0.28430400  1
  O  O10  1  0.25054500  0.88248300  0.10538100  1
  O  O11  1  0.74945500  0.11751700  0.89461900  1
