# generated using pymatgen
data_Li3Fe(SbO3)4
_symmetry_space_group_name_H-M   'P 1'
_cell_length_a   5.28470816
_cell_length_b   5.58408224
_cell_length_c   7.70102612
_cell_angle_alpha   85.65503868
_cell_angle_beta   89.87300240
_cell_angle_gamma   89.84711703
_symmetry_Int_Tables_number   1
_chemical_formula_structural   Li3Fe(SbO3)4
_chemical_formula_sum   'Li3 Fe1 Sb4 O12'
_cell_volume   226.60475269
_cell_formula_units_Z   1
loop_
 _symmetry_equiv_pos_site_id
 _symmetry_equiv_pos_as_xyz
  1  'x, y, z'
loop_
 _atom_site_type_symbol
 _atom_site_label
 _atom_site_symmetry_multiplicity
 _atom_site_fract_x
 _atom_site_fract_y
 _atom_site_fract_z
 _atom_site_occupancy
  Li  Li0  1  0.49949300  0.05665300  0.78448450  1
  Li  Li1  1  0.99979600  0.56762200  0.78372000  1
  Li  Li2  1  0.50168500  0.05763800  0.27912250  1
  Fe  Fe3  1  0.00220700  0.57587200  0.28246350  1
  Sb  Sb4  1  0.99941500  0.99695400  0.99038350  1
  Sb  Sb5  1  0.50120100  0.48543800  0.50229800  1
  Sb  Sb6  1  0.00283200  0.99406500  0.50056500  1
  Sb  Sb7  1  0.49678300  0.48852950  0.99101350  1
  O  O8  1  0.70265500  0.78202850  0.41545950  1
  O  O9  1  0.86582300  0.96484200  0.74408750  1
  O  O10  1  0.67279700  0.16247300  0.04768150  1
  O  O11  1  0.80382000  0.28986950  0.41468900  1
  O  O12  1  0.19455700  0.29369050  0.91326400  1
  O  O13  1  0.63574900  0.46477300  0.74498900  1
  O  O14  1  0.36987000  0.46147950  0.24296850  1
  O  O15  1  0.82139300  0.66235850  0.04573500  1
  O  O16  1  0.17018500  0.65413000  0.54351400  1
  O  O17  1  0.29933600  0.78835600  0.91406200  1
  O  O18  1  0.12727400  0.95723300  0.24109650  1
  O  O19  1  0.33312900  0.15519600  0.54800600  1
