# generated using pymatgen
data_Mg9V10O24
_symmetry_space_group_name_H-M   'P 1'
_cell_length_a   10.39915800
_cell_length_b   5.98947600
_cell_length_c   15.30335820
_cell_angle_alpha   90.00000000
_cell_angle_beta   90.56200968
_cell_angle_gamma   90.00000000
_symmetry_Int_Tables_number   1
_chemical_formula_structural   Mg9V10O24
_chemical_formula_sum   'Mg18 V20 O48'
_cell_volume   953.13157370
_cell_formula_units_Z   2
loop_
 _symmetry_equiv_pos_site_id
 _symmetry_equiv_pos_as_xyz
  1  'x, y, z'
loop_
 _atom_site_type_symbol
 _atom_site_label
 _atom_site_symmetry_multiplicity
 _atom_site_fract_x
 _atom_site_fract_y
 _atom_site_fract_z
 _atom_site_occupancy
  Mg  Mg0  1  0.83441100  0.50000000  0.79980200  1
  Mg  Mg1  1  0.66670600  0.00000000  0.45766100  1
  Mg  Mg2  1  0.50474500  0.50000000  0.15270200  1
  Mg  Mg3  1  0.83329400  0.50000000  0.54233900  1
  Mg  Mg4  1  0.00000000  0.00000000  0.00000000  1
  Mg  Mg5  1  0.75000000  0.75000000  0.00000000  1
  Mg  Mg6  1  0.66558900  0.00000000  0.20019800  1
  Mg  Mg7  1  0.75000000  0.25000000  0.00000000  1
  Mg  Mg8  1  0.99525500  0.00000000  0.84729800  1
  Mg  Mg9  1  0.33441100  0.00000000  0.79980200  1
  Mg  Mg10  1  0.16670600  0.50000000  0.45766100  1
  Mg  Mg11  1  0.00474500  0.00000000  0.15270200  1
  Mg  Mg12  1  0.33329400  0.00000000  0.54233900  1
  Mg  Mg13  1  0.50000000  0.50000000  0.00000000  1
  Mg  Mg14  1  0.25000000  0.25000000  0.00000000  1
  Mg  Mg15  1  0.16558900  0.50000000  0.20019800  1
  Mg  Mg16  1  0.25000000  0.75000000  0.00000000  1
  Mg  Mg17  1  0.49525500  0.50000000  0.84729800  1
  V  V18  1  0.58559350  0.24633450  0.66313800  1
  V  V19  1  0.58559350  0.75366550  0.66313800  1
  V  V20  1  0.00000000  0.00000000  0.50000000  1
  V  V21  1  0.91440650  0.25366550  0.33686200  1
  V  V22  1  0.83130100  0.00000000  0.66252100  1
  V  V23  1  0.91440650  0.74633450  0.33686200  1
  V  V24  1  0.83160200  0.50000000  0.16483600  1
  V  V25  1  0.66869900  0.50000000  0.33747900  1
  V  V26  1  0.66839800  0.00000000  0.83516400  1
  V  V27  1  0.00000000  0.50000000  0.00000000  1
  V  V28  1  0.08559350  0.74633450  0.66313800  1
  V  V29  1  0.08559350  0.25366550  0.66313800  1
  V  V30  1  0.50000000  0.50000000  0.50000000  1
  V  V31  1  0.41440650  0.75366550  0.33686200  1
  V  V32  1  0.33130100  0.50000000  0.66252100  1
  V  V33  1  0.41440650  0.24633450  0.33686200  1
  V  V34  1  0.33160200  0.00000000  0.16483600  1
  V  V35  1  0.16869900  0.00000000  0.33747900  1
  V  V36  1  0.16839800  0.50000000  0.83516400  1
  V  V37  1  0.50000000  0.00000000  0.00000000  1
  O  O38  1  0.74379850  0.77022850  0.74657200  1
  O  O39  1  0.74379850  0.22977150  0.74657200  1
  O  O40  1  0.66675300  0.00000000  0.59150200  1
  O  O41  1  0.51473700  0.00000000  0.74719100  1
  O  O42  1  0.65452300  0.50000000  0.58430500  1
  O  O43  1  0.57623200  0.27003200  0.41633500  1
  O  O44  1  0.92376800  0.77003200  0.58366500  1
  O  O45  1  0.57623200  0.72996800  0.41633500  1
  O  O46  1  0.50101500  0.50000000  0.72593300  1
  O  O47  1  0.99898500  0.00000000  0.27406700  1
  O  O48  1  0.84547700  0.00000000  0.41569500  1
  O  O49  1  0.92376800  0.22996800  0.58366500  1
  O  O50  1  0.98526300  0.50000000  0.25280900  1
  O  O51  1  0.91932450  0.25024150  0.08123300  1
  O  O52  1  0.75620150  0.27022850  0.25342800  1
  O  O53  1  0.83324700  0.50000000  0.40849800  1
  O  O54  1  0.83811800  0.50000000  0.93039000  1
  O  O55  1  0.91932450  0.74975850  0.08123300  1
  O  O56  1  0.67017700  0.50000000  0.08414000  1
  O  O57  1  0.75620150  0.72977150  0.25342800  1
  O  O58  1  0.82982300  0.00000000  0.91586000  1
  O  O59  1  0.58067550  0.75024150  0.91876700  1
  O  O60  1  0.66188200  0.00000000  0.06961000  1
  O  O61  1  0.58067550  0.24975850  0.91876700  1
  O  O62  1  0.24379850  0.27022850  0.74657200  1
  O  O63  1  0.24379850  0.72977150  0.74657200  1
  O  O64  1  0.16675300  0.50000000  0.59150200  1
  O  O65  1  0.01473700  0.50000000  0.74719100  1
  O  O66  1  0.15452300  0.00000000  0.58430500  1
  O  O67  1  0.07623200  0.77003200  0.41633500  1
  O  O68  1  0.42376800  0.27003200  0.58366500  1
  O  O69  1  0.07623200  0.22996800  0.41633500  1
  O  O70  1  0.00101500  0.00000000  0.72593300  1
  O  O71  1  0.49898500  0.50000000  0.27406700  1
  O  O72  1  0.34547700  0.50000000  0.41569500  1
  O  O73  1  0.42376800  0.72996800  0.58366500  1
  O  O74  1  0.48526300  0.00000000  0.25280900  1
  O  O75  1  0.41932450  0.75024150  0.08123300  1
  O  O76  1  0.25620150  0.77022850  0.25342800  1
  O  O77  1  0.33324700  0.00000000  0.40849800  1
  O  O78  1  0.33811800  0.00000000  0.93039000  1
  O  O79  1  0.41932450  0.24975850  0.08123300  1
  O  O80  1  0.17017700  0.00000000  0.08414000  1
  O  O81  1  0.25620150  0.22977150  0.25342800  1
  O  O82  1  0.32982300  0.50000000  0.91586000  1
  O  O83  1  0.08067550  0.25024150  0.91876700  1
  O  O84  1  0.16188200  0.50000000  0.06961000  1
  O  O85  1  0.08067550  0.74975850  0.91876700  1
