# generated using pymatgen
data_LiCo2OF3
_symmetry_space_group_name_H-M   'P 1'
_cell_length_a   6.00398463
_cell_length_b   6.00398463
_cell_length_c   15.48215627
_cell_angle_alpha   90.00000000
_cell_angle_beta   90.00000000
_cell_angle_gamma   120.00000000
_symmetry_Int_Tables_number   1
_chemical_formula_structural   LiCo2OF3
_chemical_formula_sum   'Li6 Co12 O6 F18'
_cell_volume   483.32718353
_cell_formula_units_Z   6
loop_
 _symmetry_equiv_pos_site_id
 _symmetry_equiv_pos_as_xyz
  1  'x, y, z'
loop_
 _atom_site_type_symbol
 _atom_site_label
 _atom_site_symmetry_multiplicity
 _atom_site_fract_x
 _atom_site_fract_y
 _atom_site_fract_z
 _atom_site_occupancy
  Li  Li0  1  0.33333333  0.66666667  0.02007967  1
  Li  Li1  1  0.33333333  0.66666667  0.31325367  1
  Li  Li2  1  0.00000000  0.00000000  0.35341300  1
  Li  Li3  1  0.00000000  0.00000000  0.64658700  1
  Li  Li4  1  0.66666667  0.33333333  0.68674633  1
  Li  Li5  1  0.66666667  0.33333333  0.97992033  1
  Co  Co6  1  0.83333333  0.66666667  0.16666667  1
  Co  Co7  1  0.00000000  0.00000000  0.00000000  1
  Co  Co8  1  0.33333333  0.16666667  0.16666667  1
  Co  Co9  1  0.83333333  0.16666667  0.16666667  1
  Co  Co10  1  0.50000000  0.00000000  0.50000000  1
  Co  Co11  1  0.66666667  0.33333333  0.33333333  1
  Co  Co12  1  0.00000000  0.50000000  0.50000000  1
  Co  Co13  1  0.50000000  0.50000000  0.50000000  1
  Co  Co14  1  0.16666667  0.33333333  0.83333333  1
  Co  Co15  1  0.33333333  0.66666667  0.66666667  1
  Co  Co16  1  0.66666667  0.83333333  0.83333333  1
  Co  Co17  1  0.16666667  0.83333333  0.83333333  1
  O  O18  1  0.00000000  0.00000000  0.22619200  1
  O  O19  1  0.66666667  0.33333333  0.10714133  1
  O  O20  1  0.66666667  0.33333333  0.55952533  1
  O  O21  1  0.33333333  0.66666667  0.44047467  1
  O  O22  1  0.33333333  0.66666667  0.89285867  1
  O  O23  1  0.00000000  0.00000000  0.77380800  1
  F  F24  1  0.50410467  0.49589533  0.25700233  1
  F  F25  1  0.99179067  0.49589533  0.25700233  1
  F  F26  1  0.16256200  0.32512400  0.07633100  1
  F  F27  1  0.50410467  0.00820933  0.25700233  1
  F  F28  1  0.67487600  0.83743800  0.07633100  1
  F  F29  1  0.16256200  0.83743800  0.07633100  1
  F  F30  1  0.17077133  0.82922867  0.59033567  1
  F  F31  1  0.65845733  0.82922867  0.59033567  1
  F  F32  1  0.82922867  0.65845733  0.40966433  1
  F  F33  1  0.17077133  0.34154267  0.59033567  1
  F  F34  1  0.34154267  0.17077133  0.40966433  1
  F  F35  1  0.82922867  0.17077133  0.40966433  1
  F  F36  1  0.83743800  0.16256200  0.92366900  1
  F  F37  1  0.32512400  0.16256200  0.92366900  1
  F  F38  1  0.49589533  0.99179067  0.74299767  1
  F  F39  1  0.83743800  0.67487600  0.92366900  1
  F  F40  1  0.00820933  0.50410467  0.74299767  1
  F  F41  1  0.49589533  0.50410467  0.74299767  1
