# generated using pymatgen
data_Li4Mn3Fe5O16
_symmetry_space_group_name_H-M   'P 1'
_cell_length_a   10.13825200
_cell_length_b   5.84960200
_cell_length_c   9.54030578
_cell_angle_alpha   90.00000000
_cell_angle_beta   90.19415717
_cell_angle_gamma   90.00000000
_symmetry_Int_Tables_number   1
_chemical_formula_structural   Li4Mn3Fe5O16
_chemical_formula_sum   'Li8 Mn6 Fe10 O32'
_cell_volume   565.78209723
_cell_formula_units_Z   2
loop_
 _symmetry_equiv_pos_site_id
 _symmetry_equiv_pos_as_xyz
  1  'x, y, z'
loop_
 _atom_site_type_symbol
 _atom_site_label
 _atom_site_symmetry_multiplicity
 _atom_site_fract_x
 _atom_site_fract_y
 _atom_site_fract_z
 _atom_site_occupancy
  Li  Li0  1  0.66947500  0.00000000  0.10856800  1
  Li  Li1  1  0.99833800  0.00000000  0.00386100  1
  Li  Li2  1  0.50076700  0.50000000  0.50248100  1
  Li  Li3  1  0.83383700  0.50000000  0.60730600  1
  Li  Li4  1  0.16947500  0.50000000  0.10856800  1
  Li  Li5  1  0.49833800  0.50000000  0.00386100  1
  Li  Li6  1  0.00076700  0.00000000  0.50248100  1
  Li  Li7  1  0.33383700  0.00000000  0.60730600  1
  Mn  Mn8  1  0.82985000  0.00000000  0.78517700  1
  Mn  Mn9  1  0.91562450  0.25337850  0.28511700  1
  Mn  Mn10  1  0.91562450  0.74662150  0.28511700  1
  Mn  Mn11  1  0.32985000  0.50000000  0.78517700  1
  Mn  Mn12  1  0.41562450  0.75337850  0.28511700  1
  Mn  Mn13  1  0.41562450  0.24662150  0.28511700  1
  Fe  Fe14  1  0.58414600  0.75464300  0.78547000  1
  Fe  Fe15  1  0.66387900  0.00000000  0.50736300  1
  Fe  Fe16  1  0.58414600  0.24535700  0.78547000  1
  Fe  Fe17  1  0.66958600  0.50000000  0.28616000  1
  Fe  Fe18  1  0.83065200  0.50000000  0.01101700  1
  Fe  Fe19  1  0.08414600  0.25464300  0.78547000  1
  Fe  Fe20  1  0.16387900  0.50000000  0.50736300  1
  Fe  Fe21  1  0.08414600  0.74535700  0.78547000  1
  Fe  Fe22  1  0.16958600  0.00000000  0.28616000  1
  Fe  Fe23  1  0.33065200  0.00000000  0.01101700  1
  O  O24  1  0.58014300  0.74213900  0.39635700  1
  O  O25  1  0.51784200  0.00000000  0.65855600  1
  O  O26  1  0.67204900  0.00000000  0.89728400  1
  O  O27  1  0.99411500  0.00000000  0.68862700  1
  O  O28  1  0.99689200  0.00000000  0.19094100  1
  O  O29  1  0.58014300  0.25786100  0.39635700  1
  O  O30  1  0.74548650  0.78131250  0.66172200  1
  O  O31  1  0.74548650  0.21868750  0.66172200  1
  O  O32  1  0.66257300  0.50000000  0.90188000  1
  O  O33  1  0.83870800  0.00000000  0.39604300  1
  O  O34  1  0.76146750  0.27762450  0.16677200  1
  O  O35  1  0.76146750  0.72237550  0.16677200  1
  O  O36  1  0.83775000  0.50000000  0.39108600  1
  O  O37  1  0.91362600  0.24193000  0.89947600  1
  O  O38  1  0.98192100  0.50000000  0.16597000  1
  O  O39  1  0.91362600  0.75807000  0.89947600  1
  O  O40  1  0.08014300  0.24213900  0.39635700  1
  O  O41  1  0.01784200  0.50000000  0.65855600  1
  O  O42  1  0.17204900  0.50000000  0.89728400  1
  O  O43  1  0.49411500  0.50000000  0.68862700  1
  O  O44  1  0.49689200  0.50000000  0.19094100  1
  O  O45  1  0.08014300  0.75786100  0.39635700  1
  O  O46  1  0.24548650  0.28131250  0.66172200  1
  O  O47  1  0.24548650  0.71868750  0.66172200  1
  O  O48  1  0.16257300  0.00000000  0.90188000  1
  O  O49  1  0.33870800  0.50000000  0.39604300  1
  O  O50  1  0.26146750  0.77762450  0.16677200  1
  O  O51  1  0.26146750  0.22237550  0.16677200  1
  O  O52  1  0.33775000  0.00000000  0.39108600  1
  O  O53  1  0.41362600  0.74193000  0.89947600  1
  O  O54  1  0.48192100  0.00000000  0.16597000  1
  O  O55  1  0.41362600  0.25807000  0.89947600  1
