# generated using pymatgen
data_Li3CoNi3O8
_symmetry_space_group_name_H-M   'P 1'
_cell_length_a   5.70569736
_cell_length_b   5.70569736
_cell_length_c   9.27006443
_cell_angle_alpha   90.00000000
_cell_angle_beta   90.00000000
_cell_angle_gamma   120.00000000
_symmetry_Int_Tables_number   1
_chemical_formula_structural   Li3CoNi3O8
_chemical_formula_sum   'Li6 Co2 Ni6 O16'
_cell_volume   261.35502127
_cell_formula_units_Z   2
loop_
 _symmetry_equiv_pos_site_id
 _symmetry_equiv_pos_as_xyz
  1  'x, y, z'
loop_
 _atom_site_type_symbol
 _atom_site_label
 _atom_site_symmetry_multiplicity
 _atom_site_fract_x
 _atom_site_fract_y
 _atom_site_fract_z
 _atom_site_occupancy
  Li  Li0  1  0.16095400  0.82783200  0.05192800  1
  Li  Li1  1  0.66687800  0.83904600  0.05192800  1
  Li  Li2  1  0.17216800  0.33312200  0.05192800  1
  Li  Li3  1  0.83904600  0.66687800  0.55192800  1
  Li  Li4  1  0.33312200  0.17216800  0.55192800  1
  Li  Li5  1  0.82783200  0.16095400  0.55192800  1
  Co  Co6  1  0.33333333  0.66666667  0.51355400  1
  Co  Co7  1  0.66666667  0.33333333  0.01355400  1
  Ni  Ni8  1  0.16249500  0.82402200  0.78607000  1
  Ni  Ni9  1  0.66152700  0.83750500  0.78607000  1
  Ni  Ni10  1  0.17597800  0.33847300  0.78607000  1
  Ni  Ni11  1  0.83750500  0.66152700  0.28607000  1
  Ni  Ni12  1  0.33847300  0.17597800  0.28607000  1
  Ni  Ni13  1  0.82402200  0.16249500  0.28607000  1
  O  O14  1  0.15110200  0.82132300  0.41209800  1
  O  O15  1  0.46090100  0.96230600  0.64916500  1
  O  O16  1  0.67022100  0.84889800  0.41209800  1
  O  O17  1  0.33333333  0.66666667  0.89131500  1
  O  O18  1  0.03769400  0.49859500  0.64916500  1
  O  O19  1  0.50140500  0.53909900  0.64916500  1
  O  O20  1  0.84889800  0.67022100  0.91209800  1
  O  O21  1  0.17867700  0.32977900  0.41209800  1
  O  O22  1  0.53909900  0.50140500  0.14916500  1
  O  O23  1  0.66666667  0.33333333  0.39131500  1
  O  O24  1  0.00000000  0.00000000  0.18742000  1
  O  O25  1  0.96230600  0.46090100  0.14916500  1
  O  O26  1  0.00000000  0.00000000  0.68742000  1
  O  O27  1  0.32977900  0.17867700  0.91209800  1
  O  O28  1  0.49859500  0.03769400  0.14916500  1
  O  O29  1  0.82132300  0.15110200  0.91209800  1
