# generated using pymatgen
data_Al3Cr3(SbO8)2
_symmetry_space_group_name_H-M   'P 1'
_cell_length_a   9.99249800
_cell_length_b   5.81752400
_cell_length_c   9.29624099
_cell_angle_alpha   90.00000000
_cell_angle_beta   90.46941045
_cell_angle_gamma   90.00000000
_symmetry_Int_Tables_number   1
_chemical_formula_structural   Al3Cr3(SbO8)2
_chemical_formula_sum   'Al6 Cr6 Sb4 O32'
_cell_volume   540.38719776
_cell_formula_units_Z   2
loop_
 _symmetry_equiv_pos_site_id
 _symmetry_equiv_pos_as_xyz
  1  'x, y, z'
loop_
 _atom_site_type_symbol
 _atom_site_label
 _atom_site_symmetry_multiplicity
 _atom_site_fract_x
 _atom_site_fract_y
 _atom_site_fract_z
 _atom_site_occupancy
  Al  Al0  1  0.83244000  0.00000000  0.79721400  1
  Al  Al1  1  0.41713450  0.75174450  0.29600400  1
  Al  Al2  1  0.41713450  0.24825550  0.29600400  1
  Al  Al3  1  0.33244000  0.50000000  0.79721400  1
  Al  Al4  1  0.91713450  0.25174450  0.29600400  1
  Al  Al5  1  0.91713450  0.74825550  0.29600400  1
  Cr  Cr6  1  0.58603300  0.75225300  0.78308400  1
  Cr  Cr7  1  0.58603300  0.24774700  0.78308400  1
  Cr  Cr8  1  0.16982400  0.00000000  0.27524400  1
  Cr  Cr9  1  0.08603300  0.25225300  0.78308400  1
  Cr  Cr10  1  0.08603300  0.74774700  0.78308400  1
  Cr  Cr11  1  0.66982400  0.50000000  0.27524400  1
  Sb  Sb12  1  0.66979700  0.00000000  0.50559500  1
  Sb  Sb13  1  0.33871100  0.00000000  0.00937100  1
  Sb  Sb14  1  0.16979700  0.50000000  0.50559500  1
  Sb  Sb15  1  0.83871100  0.50000000  0.00937100  1
  O  O16  1  0.58139850  0.75200450  0.39650500  1
  O  O17  1  0.51955300  0.00000000  0.65966800  1
  O  O18  1  0.66531300  0.00000000  0.89055000  1
  O  O19  1  0.99627700  0.00000000  0.69961800  1
  O  O20  1  0.00157200  0.00000000  0.19890700  1
  O  O21  1  0.58139850  0.24799550  0.39650500  1
  O  O22  1  0.74022800  0.78518700  0.66482600  1
  O  O23  1  0.74022800  0.21481300  0.66482600  1
  O  O24  1  0.16823500  0.00000000  0.89783800  1
  O  O25  1  0.83652600  0.00000000  0.39393700  1
  O  O26  1  0.25700350  0.78264550  0.16204800  1
  O  O27  1  0.25700350  0.21735450  0.16204800  1
  O  O28  1  0.32549900  0.00000000  0.38886000  1
  O  O29  1  0.41551000  0.74591100  0.89758000  1
  O  O30  1  0.47443600  0.00000000  0.16981100  1
  O  O31  1  0.41551000  0.25408900  0.89758000  1
  O  O32  1  0.08139850  0.25200450  0.39650500  1
  O  O33  1  0.01955300  0.50000000  0.65966800  1
  O  O34  1  0.16531300  0.50000000  0.89055000  1
  O  O35  1  0.49627700  0.50000000  0.69961800  1
  O  O36  1  0.50157200  0.50000000  0.19890700  1
  O  O37  1  0.08139850  0.74799550  0.39650500  1
  O  O38  1  0.24022800  0.28518700  0.66482600  1
  O  O39  1  0.24022800  0.71481300  0.66482600  1
  O  O40  1  0.66823500  0.50000000  0.89783800  1
  O  O41  1  0.33652600  0.50000000  0.39393700  1
  O  O42  1  0.75700350  0.28264550  0.16204800  1
  O  O43  1  0.75700350  0.71735450  0.16204800  1
  O  O44  1  0.82549900  0.50000000  0.38886000  1
  O  O45  1  0.91551000  0.24591100  0.89758000  1
  O  O46  1  0.97443600  0.50000000  0.16981100  1
  O  O47  1  0.91551000  0.75408900  0.89758000  1
