# generated using pymatgen
data_LiFeOF2
_symmetry_space_group_name_H-M   'P 1'
_cell_length_a   8.81395200
_cell_length_b   5.29250300
_cell_length_c   12.61117157
_cell_angle_alpha   90.00000000
_cell_angle_beta   130.96766329
_cell_angle_gamma   90.00000000
_symmetry_Int_Tables_number   1
_chemical_formula_structural   LiFeOF2
_chemical_formula_sum   'Li8 Fe8 O8 F16'
_cell_volume   444.20151846
_cell_formula_units_Z   8
loop_
 _symmetry_equiv_pos_site_id
 _symmetry_equiv_pos_as_xyz
  1  'x, y, z'
loop_
 _atom_site_type_symbol
 _atom_site_label
 _atom_site_symmetry_multiplicity
 _atom_site_fract_x
 _atom_site_fract_y
 _atom_site_fract_z
 _atom_site_occupancy
  Li  Li0  1  0.82779600  0.93036900  0.99680800  1
  Li  Li1  1  0.95510900  0.90304800  0.78670500  1
  Li  Li2  1  0.95510900  0.09695200  0.28670500  1
  Li  Li3  1  0.82779600  0.06963100  0.49680800  1
  Li  Li4  1  0.63636300  0.42465300  0.99392000  1
  Li  Li5  1  0.15247600  0.41129500  0.80450100  1
  Li  Li6  1  0.15247600  0.58870500  0.30450100  1
  Li  Li7  1  0.63636300  0.57534700  0.49392000  1
  Fe  Fe8  1  0.32512900  0.92702700  0.80922100  1
  Fe  Fe9  1  0.44338600  0.95679600  0.58060500  1
  Fe  Fe10  1  0.44338600  0.04320400  0.08060500  1
  Fe  Fe11  1  0.32512900  0.07297300  0.30922100  1
  Fe  Fe12  1  0.78505700  0.39134600  0.80115800  1
  Fe  Fe13  1  0.23382800  0.38403700  0.56695400  1
  Fe  Fe14  1  0.23382800  0.61596300  0.06695400  1
  Fe  Fe15  1  0.78505700  0.60865400  0.30115800  1
  O  O16  1  0.41615400  0.79185600  0.43423900  1
  O  O17  1  0.26377400  0.76571100  0.93838800  1
  O  O18  1  0.33912900  0.92241600  0.17214400  1
  O  O19  1  0.70880800  0.91025300  0.20620000  1
  O  O20  1  0.70880800  0.08974700  0.70620000  1
  O  O21  1  0.33912900  0.07758400  0.67214400  1
  O  O22  1  0.26377400  0.23428900  0.43838800  1
  O  O23  1  0.41615400  0.20814400  0.93423900  1
  F  F24  1  0.58863000  0.75826700  0.92373700  1
  F  F25  1  0.04019400  0.93175600  0.19481100  1
  F  F26  1  0.04019400  0.06824400  0.69481100  1
  F  F27  1  0.58863000  0.24173300  0.42373700  1
  F  F28  1  0.77375500  0.27608600  0.94147600  1
  F  F29  1  0.93476200  0.28616400  0.43424300  1
  F  F30  1  0.09362200  0.30208500  0.93496400  1
  F  F31  1  0.50991100  0.42013300  0.17708500  1
  F  F32  1  0.85152000  0.42897000  0.19732500  1
  F  F33  1  0.20937800  0.41736500  0.19429700  1
  F  F34  1  0.20937800  0.58263500  0.69429700  1
  F  F35  1  0.85152000  0.57103000  0.69732500  1
  F  F36  1  0.50991100  0.57986700  0.67708500  1
  F  F37  1  0.09362200  0.69791500  0.43496400  1
  F  F38  1  0.93476200  0.71383600  0.93424300  1
  F  F39  1  0.77375500  0.72391400  0.44147600  1
