# generated using pymatgen
data_CrGaO4
_symmetry_space_group_name_H-M   'P 1'
_cell_length_a   6.32351956
_cell_length_b   6.51805302
_cell_length_c   2.96551977
_cell_angle_alpha   90.00000000
_cell_angle_beta   90.00000000
_cell_angle_gamma   90.00000000
_symmetry_Int_Tables_number   1
_chemical_formula_structural   CrGaO4
_chemical_formula_sum   'Cr2 Ga2 O8'
_cell_volume   122.22993409
_cell_formula_units_Z   2
loop_
 _symmetry_equiv_pos_site_id
 _symmetry_equiv_pos_as_xyz
  1  'x, y, z'
loop_
 _atom_site_type_symbol
 _atom_site_label
 _atom_site_symmetry_multiplicity
 _atom_site_fract_x
 _atom_site_fract_y
 _atom_site_fract_z
 _atom_site_occupancy
  Cr  Cr0  1  0.00000000  0.00000000  0.50000000  1
  Cr  Cr1  1  0.50000000  0.50000000  0.50000000  1
  Ga  Ga2  1  0.50000000  0.00000000  0.00000000  1
  Ga  Ga3  1  0.00000000  0.50000000  0.00000000  1
  O  O4  1  0.29469400  0.00000000  0.50000000  1
  O  O5  1  0.00000000  0.81067350  0.00000000  1
  O  O6  1  0.70530600  0.00000000  0.50000000  1
  O  O7  1  0.00000000  0.18932650  0.00000000  1
  O  O8  1  0.79469400  0.50000000  0.50000000  1
  O  O9  1  0.50000000  0.31067350  0.00000000  1
  O  O10  1  0.20530600  0.50000000  0.50000000  1
  O  O11  1  0.50000000  0.68932650  0.00000000  1
