# generated using pymatgen
data_Fe(CO3)2
_symmetry_space_group_name_H-M   'P 1'
_cell_length_a   4.78573049
_cell_length_b   4.78573049
_cell_length_c   16.84184306
_cell_angle_alpha   90.00000000
_cell_angle_beta   90.00000000
_cell_angle_gamma   120.00000000
_symmetry_Int_Tables_number   1
_chemical_formula_structural   Fe(CO3)2
_chemical_formula_sum   'Fe3 C6 O18'
_cell_volume   334.05403618
_cell_formula_units_Z   3
loop_
 _symmetry_equiv_pos_site_id
 _symmetry_equiv_pos_as_xyz
  1  'x, y, z'
loop_
 _atom_site_type_symbol
 _atom_site_label
 _atom_site_symmetry_multiplicity
 _atom_site_fract_x
 _atom_site_fract_y
 _atom_site_fract_z
 _atom_site_occupancy
  Fe  Fe0  1  0.33333333  0.66666667  0.16666667  1
  Fe  Fe1  1  1.00000000  0.00000000  0.50000000  1
  Fe  Fe2  1  0.66666667  0.33333333  0.83333333  1
  C  C3  1  0.66666667  0.33333333  0.09852225  1
  C  C4  1  0.00000000  0.00000000  0.23481108  1
  C  C5  1  0.33333333  0.66666667  0.43185558  1
  C  C6  1  0.66666667  0.33333333  0.56814442  1
  C  C7  1  0.00000000  0.00000000  0.76518892  1
  C  C8  1  0.33333333  0.66666667  0.90147775  1
  O  O9  1  0.71400842  0.96172333  0.23552158  1
  O  O10  1  0.41895175  0.04734175  0.09781175  1
  O  O11  1  0.62839000  0.58104825  0.09781175  1
  O  O12  1  0.03827667  0.75228508  0.23552158  1
  O  O13  1  0.24771492  0.28599158  0.23552158  1
  O  O14  1  0.95265825  0.37161000  0.09781175  1
  O  O15  1  0.38067508  0.29505667  0.56885492  1
  O  O16  1  0.08561842  0.38067508  0.43114508  1
  O  O17  1  0.29505667  0.91438158  0.43114508  1
  O  O18  1  0.70494333  0.08561842  0.56885492  1
  O  O19  1  0.91438158  0.61932492  0.56885492  1
  O  O20  1  0.61932492  0.70494333  0.43114508  1
  O  O21  1  0.04734175  0.62839000  0.90218825  1
  O  O22  1  0.75228508  0.71400842  0.76447842  1
  O  O23  1  0.96172333  0.24771492  0.76447842  1
  O  O24  1  0.37161000  0.41895175  0.90218825  1
  O  O25  1  0.58104825  0.95265825  0.90218825  1
  O  O26  1  0.28599158  0.03827667  0.76447842  1
