# generated using pymatgen
data_LiCr3P3(HO6)2
_symmetry_space_group_name_H-M   'P 1'
_cell_length_a   12.57667800
_cell_length_b   12.28118600
_cell_length_c   6.60020632
_cell_angle_alpha   90.00000000
_cell_angle_beta   114.77402740
_cell_angle_gamma   90.00000000
_symmetry_Int_Tables_number   1
_chemical_formula_structural   LiCr3P3(HO6)2
_chemical_formula_sum   'Li4 Cr12 P12 H8 O48'
_cell_volume   925.62287340
_cell_formula_units_Z   4
loop_
 _symmetry_equiv_pos_site_id
 _symmetry_equiv_pos_as_xyz
  1  'x, y, z'
loop_
 _atom_site_type_symbol
 _atom_site_label
 _atom_site_symmetry_multiplicity
 _atom_site_fract_x
 _atom_site_fract_y
 _atom_site_fract_z
 _atom_site_occupancy
  Li  Li0  1  0.00000000  0.01475700  0.75000000  1
  Li  Li1  1  0.00000000  0.98524300  0.25000000  1
  Li  Li2  1  0.50000000  0.51475700  0.75000000  1
  Li  Li3  1  0.50000000  0.48524300  0.25000000  1
  Cr  Cr4  1  0.28602000  0.34001100  0.86314200  1
  Cr  Cr5  1  0.28602000  0.65998900  0.36314200  1
  Cr  Cr6  1  0.00000000  0.72184400  0.75000000  1
  Cr  Cr7  1  0.00000000  0.27815600  0.25000000  1
  Cr  Cr8  1  0.71398000  0.34001100  0.63685800  1
  Cr  Cr9  1  0.71398000  0.65998900  0.13685800  1
  Cr  Cr10  1  0.78602000  0.84001100  0.86314200  1
  Cr  Cr11  1  0.78602000  0.15998900  0.36314200  1
  Cr  Cr12  1  0.50000000  0.22184400  0.75000000  1
  Cr  Cr13  1  0.50000000  0.77815600  0.25000000  1
  Cr  Cr14  1  0.21398000  0.84001100  0.63685800  1
  Cr  Cr15  1  0.21398000  0.15998900  0.13685800  1
  P  P16  1  0.28614400  0.60898300  0.89150600  1
  P  P17  1  0.28614400  0.39101700  0.39150600  1
  P  P18  1  0.00000000  0.32312200  0.75000000  1
  P  P19  1  0.00000000  0.67687800  0.25000000  1
  P  P20  1  0.71385600  0.60898300  0.60849400  1
  P  P21  1  0.71385600  0.39101700  0.10849400  1
  P  P22  1  0.78614400  0.10898300  0.89150600  1
  P  P23  1  0.78614400  0.89101700  0.39150600  1
  P  P24  1  0.50000000  0.82312200  0.75000000  1
  P  P25  1  0.50000000  0.17687800  0.25000000  1
  P  P26  1  0.21385600  0.10898300  0.60849400  1
  P  P27  1  0.21385600  0.89101700  0.10849400  1
  H  H28  1  0.12452400  0.49970100  0.81738200  1
  H  H29  1  0.12452400  0.50029900  0.31738200  1
  H  H30  1  0.87547600  0.49970100  0.68261800  1
  H  H31  1  0.87547600  0.50029900  0.18261800  1
  H  H32  1  0.62452400  0.99970100  0.81738200  1
  H  H33  1  0.62452400  0.00029900  0.31738200  1
  H  H34  1  0.37547600  0.99970100  0.68261800  1
  H  H35  1  0.37547600  0.00029900  0.18261800  1
  O  O36  1  0.35480100  0.50037900  0.91378100  1
  O  O37  1  0.28408050  0.67931550  0.69647600  1
  O  O38  1  0.35480100  0.49962100  0.41378100  1
  O  O39  1  0.28408050  0.32068450  0.19647600  1
  O  O40  1  0.15234350  0.82846750  0.88704200  1
  O  O41  1  0.15599150  0.58593950  0.85584200  1
  O  O42  1  0.10434900  0.39708700  0.77309700  1
  O  O43  1  0.97023600  0.25042700  0.53997500  1
  O  O44  1  0.15234350  0.17153250  0.38704200  1
  O  O45  1  0.15599150  0.41406050  0.35584200  1
  O  O46  1  0.10434900  0.60291300  0.27309700  1
  O  O47  1  0.02976400  0.25042700  0.96002500  1
  O  O48  1  0.97023600  0.74957300  0.03997500  1
  O  O49  1  0.89565100  0.39708700  0.72690300  1
  O  O50  1  0.84400850  0.58593950  0.64415800  1
  O  O51  1  0.84765650  0.82846750  0.61295800  1
  O  O52  1  0.02976400  0.74957300  0.46002500  1
  O  O53  1  0.89565100  0.60291300  0.22690300  1
  O  O54  1  0.84400850  0.41406050  0.14415800  1
  O  O55  1  0.84765650  0.17153250  0.11295800  1
  O  O56  1  0.71591950  0.67931550  0.80352400  1
  O  O57  1  0.64519900  0.50037900  0.58621900  1
  O  O58  1  0.71591950  0.32068450  0.30352400  1
  O  O59  1  0.64519900  0.49962100  0.08621900  1
  O  O60  1  0.85480100  0.00037900  0.91378100  1
  O  O61  1  0.78408050  0.17931550  0.69647600  1
  O  O62  1  0.85480100  0.99962100  0.41378100  1
  O  O63  1  0.78408050  0.82068450  0.19647600  1
  O  O64  1  0.65234350  0.32846750  0.88704200  1
  O  O65  1  0.65599150  0.08593950  0.85584200  1
  O  O66  1  0.60434900  0.89708700  0.77309700  1
  O  O67  1  0.47023600  0.75042700  0.53997500  1
  O  O68  1  0.65234350  0.67153250  0.38704200  1
  O  O69  1  0.65599150  0.91406050  0.35584200  1
  O  O70  1  0.60434900  0.10291300  0.27309700  1
  O  O71  1  0.52976400  0.75042700  0.96002500  1
  O  O72  1  0.47023600  0.24957300  0.03997500  1
  O  O73  1  0.39565100  0.89708700  0.72690300  1
  O  O74  1  0.34400850  0.08593950  0.64415800  1
  O  O75  1  0.34765650  0.32846750  0.61295800  1
  O  O76  1  0.52976400  0.24957300  0.46002500  1
  O  O77  1  0.39565100  0.10291300  0.22690300  1
  O  O78  1  0.34400850  0.91406050  0.14415800  1
  O  O79  1  0.34765650  0.67153250  0.11295800  1
  O  O80  1  0.21591950  0.17931550  0.80352400  1
  O  O81  1  0.14519900  0.00037900  0.58621900  1
  O  O82  1  0.21591950  0.82068450  0.30352400  1
  O  O83  1  0.14519900  0.99962100  0.08621900  1
