# generated using pymatgen
data_Na4(NiO2)5
_symmetry_space_group_name_H-M   'P 1'
_cell_length_a   5.16825959
_cell_length_b   6.35674179
_cell_length_c   6.94421622
_cell_angle_alpha   110.12064961
_cell_angle_beta   96.33811113
_cell_angle_gamma   105.91937068
_symmetry_Int_Tables_number   1
_chemical_formula_structural   Na4(NiO2)5
_chemical_formula_sum   'Na4 Ni5 O10'
_cell_volume   200.63565213
_cell_formula_units_Z   1
loop_
 _symmetry_equiv_pos_site_id
 _symmetry_equiv_pos_as_xyz
  1  'x, y, z'
loop_
 _atom_site_type_symbol
 _atom_site_label
 _atom_site_symmetry_multiplicity
 _atom_site_fract_x
 _atom_site_fract_y
 _atom_site_fract_z
 _atom_site_occupancy
  Na  Na0  1  0.81304900  0.62138800  0.62362300  1
  Na  Na1  1  0.18695100  0.37861200  0.37637700  1
  Na  Na2  1  0.59971500  0.19197900  0.18902600  1
  Na  Na3  1  0.40028500  0.80802100  0.81097400  1
  Ni  Ni4  1  0.39864200  0.30135600  0.79593700  1
  Ni  Ni5  1  0.60135800  0.69864400  0.20406300  1
  Ni  Ni6  1  0.00000000  0.50000000  0.00000000  1
  Ni  Ni7  1  0.79605000  0.09788800  0.59769100  1
  Ni  Ni8  1  0.20395000  0.90211200  0.40230900  1
  O  O9  1  0.86998900  0.00885400  0.32498000  1
  O  O10  1  0.13001100  0.99114600  0.67502000  1
  O  O11  1  0.66756700  0.61370700  0.92638400  1
  O  O12  1  0.33243300  0.38629300  0.07361600  1
  O  O13  1  0.89522300  0.59181700  0.28726000  1
  O  O14  1  0.10477700  0.40818300  0.71274000  1
  O  O15  1  0.68511700  0.18177000  0.85950100  1
  O  O16  1  0.31488300  0.81823000  0.14049900  1
  O  O17  1  0.48228700  0.22462000  0.52462100  1
  O  O18  1  0.51771300  0.77538000  0.47537900  1
