# generated using pymatgen
data_Li34Sb8S7
_symmetry_space_group_name_H-M   'P 1'
_cell_length_a   9.68496200
_cell_length_b   9.68496200
_cell_length_c   19.20963600
_cell_angle_alpha   90.00000000
_cell_angle_beta   90.00000000
_cell_angle_gamma   90.00000000
_symmetry_Int_Tables_number   1
_chemical_formula_structural   Li34Sb8S7
_chemical_formula_sum   'Li68 Sb16 S14'
_cell_volume   1801.83482992
_cell_formula_units_Z   2
loop_
 _symmetry_equiv_pos_site_id
 _symmetry_equiv_pos_as_xyz
  1  'x, y, z'
loop_
 _atom_site_type_symbol
 _atom_site_label
 _atom_site_symmetry_multiplicity
 _atom_site_fract_x
 _atom_site_fract_y
 _atom_site_fract_z
 _atom_site_occupancy
  Li  Li0  1  0.58159300  0.30225700  0.42827100  1
  Li  Li1  1  0.69774300  0.58159300  0.42827100  1
  Li  Li2  1  0.22245700  0.35955000  0.00000000  1
  Li  Li3  1  0.77600850  0.07385650  0.37480050  1
  Li  Li4  1  0.80323850  0.91267650  0.24148650  1
  Li  Li5  1  0.35955000  0.77754300  0.00000000  1
  Li  Li6  1  0.91267650  0.19676150  0.24148650  1
  Li  Li7  1  0.92614350  0.77600850  0.37480050  1
  Li  Li8  1  0.00000000  0.50000000  0.06957100  1
  Li  Li9  1  0.00000000  0.50000000  0.43042900  1
  Li  Li10  1  0.00000000  0.50000000  0.25000000  1
  Li  Li11  1  0.07385650  0.22399150  0.37480050  1
  Li  Li12  1  0.08159300  0.80225700  0.07172900  1
  Li  Li13  1  0.08732350  0.80323850  0.24148650  1
  Li  Li14  1  0.64045000  0.22245700  0.00000000  1
  Li  Li15  1  0.19676150  0.08732350  0.24148650  1
  Li  Li16  1  0.19774300  0.08159300  0.07172900  1
  Li  Li17  1  0.22399150  0.92614350  0.37480050  1
  Li  Li18  1  0.77754300  0.64045000  0.00000000  1
  Li  Li19  1  0.27600850  0.57385650  0.12519950  1
  Li  Li20  1  0.30225700  0.41840700  0.42827100  1
  Li  Li21  1  0.30323850  0.41267650  0.25851350  1
  Li  Li22  1  0.41267650  0.69676150  0.25851350  1
  Li  Li23  1  0.41840700  0.69774300  0.42827100  1
  Li  Li24  1  0.42614350  0.27600850  0.12519950  1
  Li  Li25  1  0.50000000  0.00000000  0.43042900  1
  Li  Li26  1  0.50000000  0.00000000  0.25000000  1
  Li  Li27  1  0.50000000  0.00000000  0.06957100  1
  Li  Li28  1  0.57385650  0.72399150  0.12519950  1
  Li  Li29  1  0.58732350  0.30323850  0.25851350  1
  Li  Li30  1  0.69676150  0.58732350  0.25851350  1
  Li  Li31  1  0.72399150  0.42614350  0.12519950  1
  Li  Li32  1  0.80225700  0.91840700  0.07172900  1
  Li  Li33  1  0.91840700  0.19774300  0.07172900  1
  Li  Li34  1  0.08159300  0.80225700  0.92827100  1
  Li  Li35  1  0.19774300  0.08159300  0.92827100  1
  Li  Li36  1  0.72245700  0.85955000  0.50000000  1
  Li  Li37  1  0.27600850  0.57385650  0.87480050  1
  Li  Li38  1  0.30323850  0.41267650  0.74148650  1
  Li  Li39  1  0.85955000  0.27754300  0.50000000  1
  Li  Li40  1  0.41267650  0.69676150  0.74148650  1
  Li  Li41  1  0.42614350  0.27600850  0.87480050  1
  Li  Li42  1  0.50000000  0.00000000  0.56957100  1
  Li  Li43  1  0.50000000  0.00000000  0.93042900  1
  Li  Li44  1  0.50000000  0.00000000  0.75000000  1
  Li  Li45  1  0.57385650  0.72399150  0.87480050  1
  Li  Li46  1  0.58159300  0.30225700  0.57172900  1
  Li  Li47  1  0.58732350  0.30323850  0.74148650  1
  Li  Li48  1  0.14045000  0.72245700  0.50000000  1
  Li  Li49  1  0.69676150  0.58732350  0.74148650  1
  Li  Li50  1  0.69774300  0.58159300  0.57172900  1
  Li  Li51  1  0.72399150  0.42614350  0.87480050  1
  Li  Li52  1  0.27754300  0.14045000  0.50000000  1
  Li  Li53  1  0.77600850  0.07385650  0.62519950  1
  Li  Li54  1  0.80225700  0.91840700  0.92827100  1
  Li  Li55  1  0.80323850  0.91267650  0.75851350  1
  Li  Li56  1  0.91267650  0.19676150  0.75851350  1
  Li  Li57  1  0.91840700  0.19774300  0.92827100  1
  Li  Li58  1  0.92614350  0.77600850  0.62519950  1
  Li  Li59  1  0.00000000  0.50000000  0.93042900  1
  Li  Li60  1  0.00000000  0.50000000  0.75000000  1
  Li  Li61  1  0.00000000  0.50000000  0.56957100  1
  Li  Li62  1  0.07385650  0.22399150  0.62519950  1
  Li  Li63  1  0.08732350  0.80323850  0.75851350  1
  Li  Li64  1  0.19676150  0.08732350  0.75851350  1
  Li  Li65  1  0.22399150  0.92614350  0.62519950  1
  Li  Li66  1  0.30225700  0.41840700  0.57172900  1
  Li  Li67  1  0.41840700  0.69774300  0.57172900  1
  Sb  Sb68  1  0.81200850  0.37478650  0.34350650  1
  Sb  Sb69  1  0.87478650  0.68799150  0.15649350  1
  Sb  Sb70  1  0.12521350  0.31200850  0.15649350  1
  Sb  Sb71  1  0.18799150  0.62521350  0.34350650  1
  Sb  Sb72  1  0.31200850  0.87478650  0.15649350  1
  Sb  Sb73  1  0.37478650  0.18799150  0.34350650  1
  Sb  Sb74  1  0.62521350  0.81200850  0.34350650  1
  Sb  Sb75  1  0.68799150  0.12521350  0.15649350  1
  Sb  Sb76  1  0.31200850  0.87478650  0.84350650  1
  Sb  Sb77  1  0.37478650  0.18799150  0.65649350  1
  Sb  Sb78  1  0.62521350  0.81200850  0.65649350  1
  Sb  Sb79  1  0.68799150  0.12521350  0.84350650  1
  Sb  Sb80  1  0.81200850  0.37478650  0.65649350  1
  Sb  Sb81  1  0.87478650  0.68799150  0.84350650  1
  Sb  Sb82  1  0.12521350  0.31200850  0.84350650  1
  Sb  Sb83  1  0.18799150  0.62521350  0.65649350  1
  S  S84  1  0.00000000  0.00000000  0.00000000  1
  S  S85  1  0.18405300  0.60716200  0.00000000  1
  S  S86  1  0.39283800  0.18405300  0.00000000  1
  S  S87  1  0.00000000  0.00000000  0.31710700  1
  S  S88  1  0.60716200  0.81594700  0.00000000  1
  S  S89  1  0.81594700  0.39283800  0.00000000  1
  S  S90  1  0.50000000  0.50000000  0.18289300  1
  S  S91  1  0.50000000  0.50000000  0.50000000  1
  S  S92  1  0.68405300  0.10716200  0.50000000  1
  S  S93  1  0.89283800  0.68405300  0.50000000  1
  S  S94  1  0.50000000  0.50000000  0.81710700  1
  S  S95  1  0.10716200  0.31594700  0.50000000  1
  S  S96  1  0.31594700  0.89283800  0.50000000  1
  S  S97  1  0.00000000  0.00000000  0.68289300  1
