# generated using pymatgen
data_Bi4(BO4)3
_symmetry_space_group_name_H-M   'P 1'
_cell_length_a   5.73155400
_cell_length_b   5.29728800
_cell_length_c   16.17988999
_cell_angle_alpha   90.00000000
_cell_angle_beta   95.30866004
_cell_angle_gamma   90.00000000
_symmetry_Int_Tables_number   1
_chemical_formula_structural   Bi4(BO4)3
_chemical_formula_sum   'Bi8 B6 O24'
_cell_volume   489.14173898
_cell_formula_units_Z   2
loop_
 _symmetry_equiv_pos_site_id
 _symmetry_equiv_pos_as_xyz
  1  'x, y, z'
loop_
 _atom_site_type_symbol
 _atom_site_label
 _atom_site_symmetry_multiplicity
 _atom_site_fract_x
 _atom_site_fract_y
 _atom_site_fract_z
 _atom_site_occupancy
  Bi  Bi0  1  0.76550800  0.76567200  0.41266400  1
  Bi  Bi1  1  0.84570700  0.29139100  0.85684900  1
  Bi  Bi2  1  0.57909400  0.74176200  0.14216300  1
  Bi  Bi3  1  0.77054900  0.26103100  0.57260600  1
  Bi  Bi4  1  0.26550800  0.23432800  0.41266400  1
  Bi  Bi5  1  0.34570700  0.70860900  0.85684900  1
  Bi  Bi6  1  0.07909400  0.25823800  0.14216300  1
  Bi  Bi7  1  0.27054900  0.73896900  0.57260600  1
  B  B8  1  0.98248300  0.75045700  0.00506000  1
  B  B9  1  0.69569300  0.26314800  0.27055800  1
  B  B10  1  0.48248300  0.24954300  0.00506000  1
  B  B11  1  0.93076400  0.80849300  0.72092500  1
  B  B12  1  0.19569300  0.73685200  0.27055800  1
  B  B13  1  0.43076400  0.19150700  0.72092500  1
  O  O14  1  0.92336600  0.64357100  0.08134600  1
  O  O15  1  0.01608900  0.00456300  0.49503400  1
  O  O16  1  0.01710000  0.49881500  0.49216000  1
  O  O17  1  0.76754000  0.09580900  0.21092000  1
  O  O18  1  0.68805400  0.06711000  0.03286800  1
  O  O19  1  0.69309000  0.52245000  0.25481300  1
  O  O20  1  0.88193400  0.73946400  0.63991900  1
  O  O21  1  0.64865600  0.17982700  0.34703400  1
  O  O22  1  0.42336600  0.35642900  0.08134600  1
  O  O23  1  0.77846400  0.92201700  0.96458800  1
  O  O24  1  0.51608900  0.99543700  0.49503400  1
  O  O25  1  0.51710000  0.50118500  0.49216000  1
  O  O26  1  0.50603100  0.37858800  0.78120800  1
  O  O27  1  0.55289200  0.40561900  0.94122700  1
  O  O28  1  0.26754000  0.90419100  0.21092000  1
  O  O29  1  0.18805400  0.93289000  0.03286800  1
  O  O30  1  0.19309000  0.47755000  0.25481300  1
  O  O31  1  0.42781300  0.94067700  0.74319700  1
  O  O32  1  0.38193400  0.26053600  0.63991900  1
  O  O33  1  0.14865600  0.82017300  0.34703400  1
  O  O34  1  0.27846400  0.07798300  0.96458800  1
  O  O35  1  0.00603100  0.62141200  0.78120800  1
  O  O36  1  0.05289200  0.59438100  0.94122700  1
  O  O37  1  0.92781300  0.05932300  0.74319700  1
