# generated using pymatgen
data_Li4Ti2Co3Sn3O16
_symmetry_space_group_name_H-M   'P 1'
_cell_length_a   10.56256601
_cell_length_b   6.11419106
_cell_length_c   9.66839314
_cell_angle_alpha   90.00000000
_cell_angle_beta   90.19146357
_cell_angle_gamma   90.00000000
_symmetry_Int_Tables_number   1
_chemical_formula_structural   Li4Ti2Co3Sn3O16
_chemical_formula_sum   'Li8 Ti4 Co6 Sn6 O32'
_cell_volume   624.39629712
_cell_formula_units_Z   2
loop_
 _symmetry_equiv_pos_site_id
 _symmetry_equiv_pos_as_xyz
  1  'x, y, z'
loop_
 _atom_site_type_symbol
 _atom_site_label
 _atom_site_symmetry_multiplicity
 _atom_site_fract_x
 _atom_site_fract_y
 _atom_site_fract_z
 _atom_site_occupancy
  Li  Li0  1  0.82626800  0.50000000  0.89187900  1
  Li  Li1  1  0.51767050  0.50000000  0.98801800  1
  Li  Li2  1  0.51042600  0.50000000  0.49745100  1
  Li  Li3  1  0.16733600  0.50000000  0.40082700  1
  Li  Li4  1  0.32626800  0.00000000  0.89187900  1
  Li  Li5  1  0.01767050  0.00000000  0.98801800  1
  Li  Li6  1  0.01042600  0.00000000  0.49745100  1
  Li  Li7  1  0.66733600  0.00000000  0.40082700  1
  Ti  Ti8  1  0.82285100  0.50000000  0.49783100  1
  Ti  Ti9  1  0.15843600  0.50000000  0.99187400  1
  Ti  Ti10  1  0.32285100  0.00000000  0.49783100  1
  Ti  Ti11  1  0.65843600  0.00000000  0.99187400  1
  Co  Co12  1  0.67134750  0.50000000  0.21642200  1
  Co  Co13  1  0.08278950  0.73833550  0.71828600  1
  Co  Co14  1  0.08278950  0.26166450  0.71828600  1
  Co  Co15  1  0.17134750  0.00000000  0.21642200  1
  Co  Co16  1  0.58278950  0.23833550  0.71828600  1
  Co  Co17  1  0.58278950  0.76166450  0.71828600  1
  Sn  Sn18  1  0.91405100  0.74393200  0.21470800  1
  Sn  Sn19  1  0.91405100  0.25606800  0.21470800  1
  Sn  Sn20  1  0.32885700  0.50000000  0.71120000  1
  Sn  Sn21  1  0.41405100  0.24393200  0.21470800  1
  Sn  Sn22  1  0.41405100  0.75606800  0.21470800  1
  Sn  Sn23  1  0.82885700  0.00000000  0.71120000  1
  O  O24  1  0.91721800  0.74593900  0.59406100  1
  O  O25  1  0.98697900  0.50000000  0.34191900  1
  O  O26  1  0.83210600  0.50000000  0.09734200  1
  O  O27  1  0.50196950  0.50000000  0.30989400  1
  O  O28  1  0.50573300  0.50000000  0.80123000  1
  O  O29  1  0.91721800  0.25406100  0.59406100  1
  O  O30  1  0.76395850  0.71986850  0.35296500  1
  O  O31  1  0.76395850  0.28013150  0.35296500  1
  O  O32  1  0.33419950  0.50000000  0.09090400  1
  O  O33  1  0.67305450  0.50000000  0.59712400  1
  O  O34  1  0.23586100  0.71778700  0.84596200  1
  O  O35  1  0.23586100  0.28221300  0.84596200  1
  O  O36  1  0.15903450  0.50000000  0.60557900  1
  O  O37  1  0.08180100  0.73791600  0.08793100  1
  O  O38  1  0.02145850  0.50000000  0.84082700  1
  O  O39  1  0.08180100  0.26208400  0.08793100  1
  O  O40  1  0.41721800  0.24593900  0.59406100  1
  O  O41  1  0.48697900  0.00000000  0.34191900  1
  O  O42  1  0.33210600  0.00000000  0.09734200  1
  O  O43  1  0.00196950  0.00000000  0.30989400  1
  O  O44  1  0.00573300  0.00000000  0.80123000  1
  O  O45  1  0.41721800  0.75406100  0.59406100  1
  O  O46  1  0.26395850  0.21986850  0.35296500  1
  O  O47  1  0.26395850  0.78013150  0.35296500  1
  O  O48  1  0.83419950  0.00000000  0.09090400  1
  O  O49  1  0.17305450  0.00000000  0.59712400  1
  O  O50  1  0.73586100  0.21778700  0.84596200  1
  O  O51  1  0.73586100  0.78221300  0.84596200  1
  O  O52  1  0.65903450  0.00000000  0.60557900  1
  O  O53  1  0.58180100  0.23791600  0.08793100  1
  O  O54  1  0.52145850  0.00000000  0.84082700  1
  O  O55  1  0.58180100  0.76208400  0.08793100  1
