# generated using pymatgen
data_LiMn(PO4)2
_symmetry_space_group_name_H-M   'P 1'
_cell_length_a   8.94419388
_cell_length_b   4.70431200
_cell_length_c   13.57982436
_cell_angle_alpha   90.00000000
_cell_angle_beta   98.26568681
_cell_angle_gamma   90.00000000
_symmetry_Int_Tables_number   1
_chemical_formula_structural   LiMn(PO4)2
_chemical_formula_sum   'Li4 Mn4 P8 O32'
_cell_volume   565.45292604
_cell_formula_units_Z   4
loop_
 _symmetry_equiv_pos_site_id
 _symmetry_equiv_pos_as_xyz
  1  'x, y, z'
loop_
 _atom_site_type_symbol
 _atom_site_label
 _atom_site_symmetry_multiplicity
 _atom_site_fract_x
 _atom_site_fract_y
 _atom_site_fract_z
 _atom_site_occupancy
  Li  Li0  1  0.00000000  0.95589300  0.25000000  1
  Li  Li1  1  0.00000000  0.04410700  0.75000000  1
  Li  Li2  1  0.50000000  0.45589300  0.25000000  1
  Li  Li3  1  0.50000000  0.54410700  0.75000000  1
  Mn  Mn4  1  0.00000000  0.00000000  0.50000000  1
  Mn  Mn5  1  0.00000000  0.00000000  0.00000000  1
  Mn  Mn6  1  0.50000000  0.50000000  0.50000000  1
  Mn  Mn7  1  0.50000000  0.50000000  0.00000000  1
  P  P8  1  0.34722500  0.02405400  0.61129700  1
  P  P9  1  0.34722500  0.97594600  0.11129700  1
  P  P10  1  0.15277500  0.52405400  0.88870300  1
  P  P11  1  0.15277500  0.47594600  0.38870300  1
  P  P12  1  0.84722500  0.52405400  0.61129700  1
  P  P13  1  0.84722500  0.47594600  0.11129700  1
  P  P14  1  0.65277500  0.02405400  0.88870300  1
  P  P15  1  0.65277500  0.97594600  0.38870300  1
  O  O16  1  0.43962100  0.30844900  0.61733400  1
  O  O17  1  0.36512350  0.11136450  0.21521800  1
  O  O18  1  0.39505150  0.16678250  0.02984500  1
  O  O19  1  0.17868750  0.11630950  0.58507300  1
  O  O20  1  0.17868750  0.88369050  0.08507300  1
  O  O21  1  0.39505150  0.83321750  0.52984500  1
  O  O22  1  0.36512350  0.88863550  0.71521800  1
  O  O23  1  0.43962100  0.69155100  0.11733400  1
  O  O24  1  0.06037900  0.80844900  0.88266600  1
  O  O25  1  0.13487650  0.61136450  0.28478200  1
  O  O26  1  0.10494850  0.66678250  0.47015500  1
  O  O27  1  0.32131250  0.61630950  0.91492700  1
  O  O28  1  0.32131250  0.38369050  0.41492700  1
  O  O29  1  0.10494850  0.33321750  0.97015500  1
  O  O30  1  0.13487650  0.38863550  0.78478200  1
  O  O31  1  0.06037900  0.19155100  0.38266600  1
  O  O32  1  0.93962100  0.80844900  0.61733400  1
  O  O33  1  0.86512350  0.61136450  0.21521800  1
  O  O34  1  0.89505150  0.66678250  0.02984500  1
  O  O35  1  0.67868750  0.61630950  0.58507300  1
  O  O36  1  0.67868750  0.38369050  0.08507300  1
  O  O37  1  0.89505150  0.33321750  0.52984500  1
  O  O38  1  0.86512350  0.38863550  0.71521800  1
  O  O39  1  0.93962100  0.19155100  0.11733400  1
  O  O40  1  0.56037900  0.30844900  0.88266600  1
  O  O41  1  0.63487650  0.11136450  0.28478200  1
  O  O42  1  0.60494850  0.16678250  0.47015500  1
  O  O43  1  0.82131250  0.11630950  0.91492700  1
  O  O44  1  0.82131250  0.88369050  0.41492700  1
  O  O45  1  0.60494850  0.83321750  0.97015500  1
  O  O46  1  0.63487650  0.88863550  0.78478200  1
  O  O47  1  0.56037900  0.69155100  0.38266600  1
