# generated using pymatgen
data_Li3Mn4CuO8
_symmetry_space_group_name_H-M   'P 1'
_cell_length_a   10.28644200
_cell_length_b   6.15430400
_cell_length_c   6.15734625
_cell_angle_alpha   90.00000000
_cell_angle_beta   126.52055139
_cell_angle_gamma   90.00000000
_symmetry_Int_Tables_number   1
_chemical_formula_structural   Li3Mn4CuO8
_chemical_formula_sum   'Li6 Mn8 Cu2 O16'
_cell_volume   313.25723752
_cell_formula_units_Z   2
loop_
 _symmetry_equiv_pos_site_id
 _symmetry_equiv_pos_as_xyz
  1  'x, y, z'
loop_
 _atom_site_type_symbol
 _atom_site_label
 _atom_site_symmetry_multiplicity
 _atom_site_fract_x
 _atom_site_fract_y
 _atom_site_fract_z
 _atom_site_occupancy
  Li  Li0  1  0.25000000  0.75000000  0.50000000  1
  Li  Li1  1  0.00000000  0.00000000  0.50000000  1
  Li  Li2  1  0.25000000  0.25000000  0.50000000  1
  Li  Li3  1  0.75000000  0.25000000  0.50000000  1
  Li  Li4  1  0.50000000  0.50000000  0.50000000  1
  Li  Li5  1  0.75000000  0.75000000  0.50000000  1
  Mn  Mn6  1  0.50000000  0.00000000  0.50000000  1
  Mn  Mn7  1  0.00000000  0.00000000  0.00000000  1
  Mn  Mn8  1  0.25000000  0.75000000  0.00000000  1
  Mn  Mn9  1  0.75000000  0.75000000  0.00000000  1
  Mn  Mn10  1  0.00000000  0.50000000  0.50000000  1
  Mn  Mn11  1  0.50000000  0.50000000  0.00000000  1
  Mn  Mn12  1  0.75000000  0.25000000  0.00000000  1
  Mn  Mn13  1  0.25000000  0.25000000  0.00000000  1
  Cu  Cu14  1  0.00000000  0.50000000  0.00000000  1
  Cu  Cu15  1  0.50000000  0.00000000  0.00000000  1
  O  O16  1  0.26109900  0.00000000  0.80355200  1
  O  O17  1  0.51287900  0.74297600  0.75752800  1
  O  O18  1  0.01287900  0.75702400  0.75752800  1
  O  O19  1  0.24552100  0.50000000  0.72660900  1
  O  O20  1  0.25447900  0.00000000  0.27339100  1
  O  O21  1  0.48712100  0.74297600  0.24247200  1
  O  O22  1  0.98712100  0.75702400  0.24247200  1
  O  O23  1  0.23890100  0.50000000  0.19644800  1
  O  O24  1  0.76109900  0.50000000  0.80355200  1
  O  O25  1  0.01287900  0.24297600  0.75752800  1
  O  O26  1  0.51287900  0.25702400  0.75752800  1
  O  O27  1  0.74552100  0.00000000  0.72660900  1
  O  O28  1  0.75447900  0.50000000  0.27339100  1
  O  O29  1  0.98712100  0.24297600  0.24247200  1
  O  O30  1  0.48712100  0.25702400  0.24247200  1
  O  O31  1  0.73890100  0.00000000  0.19644800  1
