# generated using pymatgen
data_Li4V3CrO8
_symmetry_space_group_name_H-M   'P 1'
_cell_length_a   10.30203380
_cell_length_b   5.94836902
_cell_length_c   5.18463740
_cell_angle_alpha   90.00000000
_cell_angle_beta   109.31601214
_cell_angle_gamma   90.00000000
_symmetry_Int_Tables_number   1
_chemical_formula_structural   Li4V3CrO8
_chemical_formula_sum   'Li8 V6 Cr2 O16'
_cell_volume   299.83142623
_cell_formula_units_Z   2
loop_
 _symmetry_equiv_pos_site_id
 _symmetry_equiv_pos_as_xyz
  1  'x, y, z'
loop_
 _atom_site_type_symbol
 _atom_site_label
 _atom_site_symmetry_multiplicity
 _atom_site_fract_x
 _atom_site_fract_y
 _atom_site_fract_z
 _atom_site_occupancy
  Li  Li0  1  0.75182700  0.00000000  0.50109800  1
  Li  Li1  1  0.24817300  0.00000000  0.49890200  1
  Li  Li2  1  0.00000000  0.24486900  0.50000000  1
  Li  Li3  1  0.00000000  0.75513100  0.50000000  1
  Li  Li4  1  0.25182700  0.50000000  0.50109800  1
  Li  Li5  1  0.74817300  0.50000000  0.49890200  1
  Li  Li6  1  0.50000000  0.74486900  0.50000000  1
  Li  Li7  1  0.50000000  0.25513100  0.50000000  1
  V  V8  1  0.25000000  0.75000000  0.00000000  1
  V  V9  1  0.25000000  0.25000000  0.00000000  1
  V  V10  1  0.00000000  0.50000000  0.00000000  1
  V  V11  1  0.75000000  0.25000000  0.00000000  1
  V  V12  1  0.75000000  0.75000000  0.00000000  1
  V  V13  1  0.50000000  0.00000000  0.00000000  1
  Cr  Cr14  1  0.00000000  0.00000000  0.00000000  1
  Cr  Cr15  1  0.50000000  0.50000000  0.00000000  1
  O  O16  1  0.12876550  0.50000000  0.77316200  1
  O  O17  1  0.12178550  0.75268750  0.23048500  1
  O  O18  1  0.12705250  0.00000000  0.76996200  1
  O  O19  1  0.12178550  0.24731250  0.23048500  1
  O  O20  1  0.87821450  0.24731250  0.76951500  1
  O  O21  1  0.87123450  0.50000000  0.22683800  1
  O  O22  1  0.87821450  0.75268750  0.76951500  1
  O  O23  1  0.87294750  0.00000000  0.23003800  1
  O  O24  1  0.62876550  0.00000000  0.77316200  1
  O  O25  1  0.62178550  0.25268750  0.23048500  1
  O  O26  1  0.62705250  0.50000000  0.76996200  1
  O  O27  1  0.62178550  0.74731250  0.23048500  1
  O  O28  1  0.37821450  0.74731250  0.76951500  1
  O  O29  1  0.37123450  0.00000000  0.22683800  1
  O  O30  1  0.37821450  0.25268750  0.76951500  1
  O  O31  1  0.37294750  0.50000000  0.23003800  1
