# generated using pymatgen
data_Li2MnCu3O8
_symmetry_space_group_name_H-M   'P 1'
_cell_length_a   5.87360001
_cell_length_b   5.87360001
_cell_length_c   14.31839306
_cell_angle_alpha   90.00000000
_cell_angle_beta   90.00000000
_cell_angle_gamma   120.00000000
_symmetry_Int_Tables_number   1
_chemical_formula_structural   Li2MnCu3O8
_chemical_formula_sum   'Li6 Mn3 Cu9 O24'
_cell_volume   427.79297373
_cell_formula_units_Z   3
loop_
 _symmetry_equiv_pos_site_id
 _symmetry_equiv_pos_as_xyz
  1  'x, y, z'
loop_
 _atom_site_type_symbol
 _atom_site_label
 _atom_site_symmetry_multiplicity
 _atom_site_fract_x
 _atom_site_fract_y
 _atom_site_fract_z
 _atom_site_occupancy
  Li  Li0  1  0.33333333  0.66666667  0.79454567  1
  Li  Li1  1  0.33333333  0.66666667  0.53878767  1
  Li  Li2  1  0.00000000  0.00000000  0.12787900  1
  Li  Li3  1  0.00000000  0.00000000  0.87212100  1
  Li  Li4  1  0.66666667  0.33333333  0.46121233  1
  Li  Li5  1  0.66666667  0.33333333  0.20545433  1
  Mn  Mn6  1  0.33333333  0.66666667  0.16666667  1
  Mn  Mn7  1  1.00000000  1.00000000  0.50000000  1
  Mn  Mn8  1  0.66666667  0.33333333  0.83333333  1
  Cu  Cu9  1  0.50000000  0.50000000  0.00000000  1
  Cu  Cu10  1  0.00000000  0.50000000  0.00000000  1
  Cu  Cu11  1  0.16666667  0.33333333  0.33333333  1
  Cu  Cu12  1  0.16666667  0.83333333  0.33333333  1
  Cu  Cu13  1  0.66666667  0.83333333  0.33333333  1
  Cu  Cu14  1  0.83333333  0.66666667  0.66666667  1
  Cu  Cu15  1  0.83333333  0.16666667  0.66666667  1
  Cu  Cu16  1  0.33333333  0.16666667  0.66666667  1
  Cu  Cu17  1  0.50000000  0.00000000  0.00000000  1
  O  O18  1  0.33333333  0.66666667  0.93424567  1
  O  O19  1  0.18480800  0.36961600  0.08484600  1
  O  O20  1  0.63038400  0.81519200  0.08484600  1
  O  O21  1  0.18480800  0.81519200  0.08484600  1
  O  O22  1  0.48185867  0.51814133  0.24848733  1
  O  O23  1  0.03628267  0.51814133  0.24848733  1
  O  O24  1  0.48185867  0.96371733  0.24848733  1
  O  O25  1  0.33333333  0.66666667  0.39908767  1
  O  O26  1  0.00000000  0.00000000  0.26757900  1
  O  O27  1  0.85147467  0.70294933  0.41817933  1
  O  O28  1  0.29705067  0.14852533  0.41817933  1
  O  O29  1  0.85147467  0.14852533  0.41817933  1
  O  O30  1  0.14852533  0.85147467  0.58182067  1
  O  O31  1  0.70294933  0.85147467  0.58182067  1
  O  O32  1  0.14852533  0.29705067  0.58182067  1
  O  O33  1  0.00000000  0.00000000  0.73242100  1
  O  O34  1  0.66666667  0.33333333  0.60091233  1
  O  O35  1  0.51814133  0.03628267  0.75151267  1
  O  O36  1  0.96371733  0.48185867  0.75151267  1
  O  O37  1  0.51814133  0.48185867  0.75151267  1
  O  O38  1  0.81519200  0.18480800  0.91515400  1
  O  O39  1  0.36961600  0.18480800  0.91515400  1
  O  O40  1  0.81519200  0.63038400  0.91515400  1
  O  O41  1  0.66666667  0.33333333  0.06575433  1
