# generated using pymatgen
data_LiVCoO4
_symmetry_space_group_name_H-M   'P 1'
_cell_length_a   5.74000600
_cell_length_b   5.85344600
_cell_length_c   8.65092800
_cell_angle_alpha   90.00000000
_cell_angle_beta   90.00000000
_cell_angle_gamma   90.00000000
_symmetry_Int_Tables_number   1
_chemical_formula_structural   LiVCoO4
_chemical_formula_sum   'Li4 V4 Co4 O16'
_cell_volume   290.66093084
_cell_formula_units_Z   4
loop_
 _symmetry_equiv_pos_site_id
 _symmetry_equiv_pos_as_xyz
  1  'x, y, z'
loop_
 _atom_site_type_symbol
 _atom_site_label
 _atom_site_symmetry_multiplicity
 _atom_site_fract_x
 _atom_site_fract_y
 _atom_site_fract_z
 _atom_site_occupancy
  Li  Li0  1  0.50000000  0.25000000  0.63332500  1
  Li  Li1  1  0.00000000  0.25000000  0.86667500  1
  Li  Li2  1  0.00000000  0.75000000  0.13332500  1
  Li  Li3  1  0.50000000  0.75000000  0.36667500  1
  V  V4  1  0.50000000  0.50000000  0.00000000  1
  V  V5  1  0.50000000  0.00000000  0.00000000  1
  V  V6  1  0.00000000  0.00000000  0.50000000  1
  V  V7  1  0.00000000  0.50000000  0.50000000  1
  Co  Co8  1  0.75000000  0.75000000  0.75000000  1
  Co  Co9  1  0.25000000  0.75000000  0.75000000  1
  Co  Co10  1  0.25000000  0.25000000  0.25000000  1
  Co  Co11  1  0.75000000  0.25000000  0.25000000  1
  O  O12  1  0.00000000  0.96879400  0.73063900  1
  O  O13  1  0.00000000  0.53120600  0.73063900  1
  O  O14  1  0.72133200  0.25000000  0.99835300  1
  O  O15  1  0.27866800  0.25000000  0.99835300  1
  O  O16  1  0.22133200  0.25000000  0.50164700  1
  O  O17  1  0.77866800  0.25000000  0.50164700  1
  O  O18  1  0.50000000  0.96879400  0.76936100  1
  O  O19  1  0.50000000  0.53120600  0.76936100  1
  O  O20  1  0.50000000  0.46879400  0.23063900  1
  O  O21  1  0.50000000  0.03120600  0.23063900  1
  O  O22  1  0.22133200  0.75000000  0.49835300  1
  O  O23  1  0.77866800  0.75000000  0.49835300  1
  O  O24  1  0.72133200  0.75000000  0.00164700  1
  O  O25  1  0.27866800  0.75000000  0.00164700  1
  O  O26  1  0.00000000  0.46879400  0.26936100  1
  O  O27  1  0.00000000  0.03120600  0.26936100  1
