# generated using pymatgen
data_Li4Mn3Cr3(CuO8)2
_symmetry_space_group_name_H-M   'P 1'
_cell_length_a   10.07190731
_cell_length_b   5.81396577
_cell_length_c   9.52680225
_cell_angle_alpha   90.00000000
_cell_angle_beta   90.10898780
_cell_angle_gamma   90.00000000
_symmetry_Int_Tables_number   1
_chemical_formula_structural   Li4Mn3Cr3(CuO8)2
_chemical_formula_sum   'Li8 Mn6 Cr6 Cu4 O32'
_cell_volume   557.86685063
_cell_formula_units_Z   2
loop_
 _symmetry_equiv_pos_site_id
 _symmetry_equiv_pos_as_xyz
  1  'x, y, z'
loop_
 _atom_site_type_symbol
 _atom_site_label
 _atom_site_symmetry_multiplicity
 _atom_site_fract_x
 _atom_site_fract_y
 _atom_site_fract_z
 _atom_site_occupancy
  Li  Li0  1  0.17085400  0.50000000  0.89728000  1
  Li  Li1  1  0.49678950  0.50000000  0.99722900  1
  Li  Li2  1  0.49886300  0.50000000  0.49585600  1
  Li  Li3  1  0.33611500  0.00000000  0.39737700  1
  Li  Li4  1  0.67085400  0.00000000  0.89728000  1
  Li  Li5  1  0.99678950  0.00000000  0.99722900  1
  Li  Li6  1  0.99886300  0.00000000  0.49585600  1
  Li  Li7  1  0.83611500  0.50000000  0.39737700  1
  Mn  Mn8  1  0.32974100  0.50000000  0.21481500  1
  Mn  Mn9  1  0.41666950  0.75327550  0.71400400  1
  Mn  Mn10  1  0.41666950  0.24672450  0.71400400  1
  Mn  Mn11  1  0.82974100  0.00000000  0.21481500  1
  Mn  Mn12  1  0.91666950  0.25327550  0.71400400  1
  Mn  Mn13  1  0.91666950  0.74672450  0.71400400  1
  Cr  Cr14  1  0.08333150  0.25213550  0.21091600  1
  Cr  Cr15  1  0.08333150  0.74786450  0.21091600  1
  Cr  Cr16  1  0.16978550  0.00000000  0.71370500  1
  Cr  Cr17  1  0.58333150  0.75213550  0.21091600  1
  Cr  Cr18  1  0.58333150  0.24786450  0.21091600  1
  Cr  Cr19  1  0.66978550  0.50000000  0.71370500  1
  Cu  Cu20  1  0.16436100  0.50000000  0.49056400  1
  Cu  Cu21  1  0.33240350  0.00000000  0.98799700  1
  Cu  Cu22  1  0.66436100  0.00000000  0.49056400  1
  Cu  Cu23  1  0.83240350  0.50000000  0.98799700  1
  O  O24  1  0.07705050  0.24117850  0.60257300  1
  O  O25  1  0.01946250  0.50000000  0.33263400  1
  O  O26  1  0.17049850  0.50000000  0.10444900  1
  O  O27  1  0.49519150  0.50000000  0.31199500  1
  O  O28  1  0.49678400  0.50000000  0.81224500  1
  O  O29  1  0.07705050  0.75882150  0.60257300  1
  O  O30  1  0.24160850  0.27786350  0.33316700  1
  O  O31  1  0.24160850  0.72213650  0.33316700  1
  O  O32  1  0.16037000  0.00000000  0.10650800  1
  O  O33  1  0.34026000  0.50000000  0.60478400  1
  O  O34  1  0.26304500  0.77446800  0.83422500  1
  O  O35  1  0.26304500  0.22553200  0.83422500  1
  O  O36  1  0.33860200  0.00000000  0.60747200  1
  O  O37  1  0.41898100  0.74126700  0.10474100  1
  O  O38  1  0.48360950  0.00000000  0.83318000  1
  O  O39  1  0.41898100  0.25873300  0.10474100  1
  O  O40  1  0.57705050  0.74117850  0.60257300  1
  O  O41  1  0.51946250  0.00000000  0.33263400  1
  O  O42  1  0.67049850  0.00000000  0.10444900  1
  O  O43  1  0.99519150  0.00000000  0.31199500  1
  O  O44  1  0.99678400  0.00000000  0.81224500  1
  O  O45  1  0.57705050  0.25882150  0.60257300  1
  O  O46  1  0.74160850  0.77786350  0.33316700  1
  O  O47  1  0.74160850  0.22213650  0.33316700  1
  O  O48  1  0.66037000  0.50000000  0.10650800  1
  O  O49  1  0.84026000  0.00000000  0.60478400  1
  O  O50  1  0.76304500  0.27446800  0.83422500  1
  O  O51  1  0.76304500  0.72553200  0.83422500  1
  O  O52  1  0.83860200  0.50000000  0.60747200  1
  O  O53  1  0.91898100  0.24126700  0.10474100  1
  O  O54  1  0.98360950  0.50000000  0.83318000  1
  O  O55  1  0.91898100  0.75873300  0.10474100  1
