# generated using pymatgen
data_MnFe5(PO4)6
_symmetry_space_group_name_H-M   'P 1'
_cell_length_a   8.66532815
_cell_length_b   8.66532815
_cell_length_c   20.37508099
_cell_angle_alpha   90.00000000
_cell_angle_beta   90.00000000
_cell_angle_gamma   120.00000000
_symmetry_Int_Tables_number   1
_chemical_formula_structural   MnFe5(PO4)6
_chemical_formula_sum   'Mn3 Fe15 P18 O72'
_cell_volume   1324.95156571
_cell_formula_units_Z   3
loop_
 _symmetry_equiv_pos_site_id
 _symmetry_equiv_pos_as_xyz
  1  'x, y, z'
loop_
 _atom_site_type_symbol
 _atom_site_label
 _atom_site_symmetry_multiplicity
 _atom_site_fract_x
 _atom_site_fract_y
 _atom_site_fract_z
 _atom_site_occupancy
  Mn  Mn0  1  0.33333333  0.66666667  0.52157967  1
  Mn  Mn1  1  0.00000000  0.00000000  0.85491300  1
  Mn  Mn2  1  0.66666667  0.33333333  0.18824633  1
  Fe  Fe3  1  0.33333333  0.66666667  0.66751867  1
  Fe  Fe4  1  0.33333333  0.66666667  0.02063267  1
  Fe  Fe5  1  0.33333333  0.66666667  0.16616067  1
  Fe  Fe6  1  0.33333333  0.66666667  0.81294267  1
  Fe  Fe7  1  0.33333333  0.66666667  0.31234067  1
  Fe  Fe8  1  0.00000000  0.00000000  0.00085200  1
  Fe  Fe9  1  0.00000000  0.00000000  0.35396600  1
  Fe  Fe10  1  0.00000000  0.00000000  0.49949400  1
  Fe  Fe11  1  0.00000000  0.00000000  0.14627600  1
  Fe  Fe12  1  0.00000000  0.00000000  0.64567400  1
  Fe  Fe13  1  0.66666667  0.33333333  0.33418533  1
  Fe  Fe14  1  0.66666667  0.33333333  0.68729933  1
  Fe  Fe15  1  0.66666667  0.33333333  0.83282733  1
  Fe  Fe16  1  0.66666667  0.33333333  0.47960933  1
  Fe  Fe17  1  0.66666667  0.33333333  0.97900733  1
  P  P18  1  0.66619800  0.62962400  0.08287700  1
  P  P19  1  0.96342600  0.33380200  0.08287700  1
  P  P20  1  0.37037600  0.03657400  0.08287700  1
  P  P21  1  0.29765700  0.29642000  0.25002900  1
  P  P22  1  0.70358000  0.00123700  0.25002900  1
  P  P23  1  0.99876300  0.70234300  0.25002900  1
  P  P24  1  0.33286467  0.96295733  0.41621033  1
  P  P25  1  0.63009267  0.66713533  0.41621033  1
  P  P26  1  0.03704267  0.36990733  0.41621033  1
  P  P27  1  0.96432367  0.62975333  0.58336233  1
  P  P28  1  0.37024667  0.33457033  0.58336233  1
  P  P29  1  0.66542967  0.03567633  0.58336233  1
  P  P30  1  0.99953133  0.29629067  0.74954367  1
  P  P31  1  0.29675933  0.00046867  0.74954367  1
  P  P32  1  0.70370933  0.70324067  0.74954367  1
  P  P33  1  0.63099033  0.96308667  0.91669567  1
  P  P34  1  0.03691333  0.66790367  0.91669567  1
  P  P35  1  0.33209633  0.36900967  0.91669567  1
  O  O36  1  0.53936700  0.68229300  0.35462500  1
  O  O37  1  0.14292600  0.46063300  0.35462500  1
  O  O38  1  0.31770700  0.85707400  0.35462500  1
  O  O39  1  0.83452633  0.81956867  0.07156567  1
  O  O40  1  0.67626967  0.53948533  0.14517633  1
  O  O41  1  0.50153800  0.65846600  0.09404000  1
  O  O42  1  0.98504233  0.16547367  0.07156567  1
  O  O43  1  0.15692800  0.49846200  0.09404000  1
  O  O44  1  0.20404267  0.19025333  0.18898133  1
  O  O45  1  0.34153400  0.84307200  0.09404000  1
  O  O46  1  0.48776200  0.32101400  0.26252300  1
  O  O47  1  0.80974667  0.01378933  0.18898133  1
  O  O48  1  0.86321567  0.32373033  0.14517633  1
  O  O49  1  0.18043133  0.01495767  0.07156567  1
  O  O50  1  0.32301767  0.48776633  0.23814933  1
  O  O51  1  0.46051467  0.13678433  0.14517633  1
  O  O52  1  0.51223367  0.83525133  0.23814933  1
  O  O53  1  0.67898600  0.16674800  0.26252300  1
  O  O54  1  0.16474867  0.67698233  0.23814933  1
  O  O55  1  0.98621067  0.79595733  0.18898133  1
  O  O56  1  0.83325200  0.51223800  0.26252300  1
  O  O57  1  0.34275000  0.47395300  0.97830900  1
  O  O58  1  0.52604700  0.86879700  0.97830900  1
  O  O59  1  0.13120300  0.65725000  0.97830900  1
  O  O60  1  0.20603367  0.01562633  0.68795833  1
  O  O61  1  0.80959267  0.79396633  0.68795833  1
  O  O62  1  0.98437367  0.19040733  0.68795833  1
  O  O63  1  0.50119300  0.15290200  0.40489900  1
  O  O64  1  0.34293633  0.87281867  0.47850967  1
  O  O65  1  0.16820467  0.99179933  0.42737333  1
  O  O66  1  0.65170900  0.49880700  0.40489900  1
  O  O67  1  0.82359467  0.83179533  0.42737333  1
  O  O68  1  0.87070933  0.52358667  0.52231467  1
  O  O69  1  0.00820067  0.17640533  0.42737333  1
  O  O70  1  0.15442867  0.65434733  0.59585633  1
  O  O71  1  0.47641333  0.34712267  0.52231467  1
  O  O72  1  0.52988233  0.65706367  0.47850967  1
  O  O73  1  0.84709800  0.34829100  0.40489900  1
  O  O74  1  0.98968433  0.82109967  0.57148267  1
  O  O75  1  0.12718133  0.47011767  0.47850967  1
  O  O76  1  0.17890033  0.16858467  0.57148267  1
  O  O77  1  0.34565267  0.50008133  0.59585633  1
  O  O78  1  0.83141533  0.01031567  0.57148267  1
  O  O79  1  0.65287733  0.12929067  0.52231467  1
  O  O80  1  0.49991867  0.84557133  0.59585633  1
  O  O81  1  0.00941667  0.80728633  0.31164233  1
  O  O82  1  0.19271367  0.20213033  0.31164233  1
  O  O83  1  0.79786967  0.99058333  0.31164233  1
  O  O84  1  0.87270033  0.34895967  0.02129167  1
  O  O85  1  0.47625933  0.12729967  0.02129167  1
  O  O86  1  0.65104033  0.52374067  0.02129167  1
  O  O87  1  0.16785967  0.48623533  0.73823233  1
  O  O88  1  0.00960300  0.20615200  0.81184300  1
  O  O89  1  0.83487133  0.32513267  0.76070667  1
  O  O90  1  0.31837567  0.83214033  0.73823233  1
  O  O91  1  0.49026133  0.16512867  0.76070667  1
  O  O92  1  0.53737600  0.85692000  0.85564800  1
  O  O93  1  0.67486733  0.50973867  0.76070667  1
  O  O94  1  0.82109533  0.98768067  0.92918967  1
  O  O95  1  0.14308000  0.68045600  0.85564800  1
  O  O96  1  0.19654900  0.99039700  0.81184300  1
  O  O97  1  0.51376467  0.68162433  0.73823233  1
  O  O98  1  0.65635100  0.15443300  0.90481600  1
  O  O99  1  0.79384800  0.80345100  0.81184300  1
  O  O100  1  0.84556700  0.50191800  0.90481600  1
  O  O101  1  0.01231933  0.83341467  0.92918967  1
  O  O102  1  0.49808200  0.34364900  0.90481600  1
  O  O103  1  0.31954400  0.46262400  0.85564800  1
  O  O104  1  0.16658533  0.17890467  0.92918967  1
  O  O105  1  0.67608333  0.14061967  0.64497567  1
  O  O106  1  0.85938033  0.53546367  0.64497567  1
  O  O107  1  0.46453633  0.32391667  0.64497567  1
