# generated using pymatgen
data_Fe2O3F
_symmetry_space_group_name_H-M   'P 1'
_cell_length_a   6.39134800
_cell_length_b   6.88736400
_cell_length_c   15.03249100
_cell_angle_alpha   90.00000000
_cell_angle_beta   90.00000000
_cell_angle_gamma   90.00000000
_symmetry_Int_Tables_number   1
_chemical_formula_structural   Fe2O3F
_chemical_formula_sum   'Fe20 O30 F10'
_cell_volume   661.72334078
_cell_formula_units_Z   10
loop_
 _symmetry_equiv_pos_site_id
 _symmetry_equiv_pos_as_xyz
  1  'x, y, z'
loop_
 _atom_site_type_symbol
 _atom_site_label
 _atom_site_symmetry_multiplicity
 _atom_site_fract_x
 _atom_site_fract_y
 _atom_site_fract_z
 _atom_site_occupancy
  Fe  Fe0  1  0.50000000  0.49728900  0.39940500  1
  Fe  Fe1  1  0.50000000  0.49728900  0.60059500  1
  Fe  Fe2  1  0.50000000  0.48503000  0.80077900  1
  Fe  Fe3  1  0.50000000  0.48332000  0.00000000  1
  Fe  Fe4  1  0.50000000  0.48503000  0.19922100  1
  Fe  Fe5  1  0.50000000  0.96331100  0.50000000  1
  Fe  Fe6  1  0.50000000  0.02036600  0.90031100  1
  Fe  Fe7  1  0.50000000  0.02598900  0.70013800  1
  Fe  Fe8  1  0.50000000  0.02036600  0.09968900  1
  Fe  Fe9  1  0.50000000  0.02598900  0.29986200  1
  Fe  Fe10  1  0.00000000  0.99728900  0.39940500  1
  Fe  Fe11  1  0.00000000  0.99728900  0.60059500  1
  Fe  Fe12  1  0.00000000  0.98503000  0.80077900  1
  Fe  Fe13  1  0.00000000  0.98332000  0.00000000  1
  Fe  Fe14  1  0.00000000  0.98503000  0.19922100  1
  Fe  Fe15  1  0.00000000  0.46331100  0.50000000  1
  Fe  Fe16  1  0.00000000  0.52036600  0.90031100  1
  Fe  Fe17  1  0.00000000  0.52598900  0.70013800  1
  Fe  Fe18  1  0.00000000  0.52036600  0.09968900  1
  Fe  Fe19  1  0.00000000  0.52598900  0.29986200  1
  O  O20  1  0.50000000  0.31550500  0.69797400  1
  O  O21  1  0.50000000  0.30979000  0.90002600  1
  O  O22  1  0.50000000  0.30979000  0.09997400  1
  O  O23  1  0.50000000  0.31550500  0.30202600  1
  O  O24  1  0.30671200  0.99495200  0.39908300  1
  O  O25  1  0.30671200  0.99495200  0.60091700  1
  O  O26  1  0.30727200  0.00523300  0.80076300  1
  O  O27  1  0.30763600  0.00059100  0.00000000  1
  O  O28  1  0.30727200  0.00523300  0.19923700  1
  O  O29  1  0.69328800  0.99495200  0.39908300  1
  O  O30  1  0.69328800  0.99495200  0.60091700  1
  O  O31  1  0.69272800  0.00523300  0.80076300  1
  O  O32  1  0.69236400  0.00059100  0.00000000  1
  O  O33  1  0.69272800  0.00523300  0.19923700  1
  O  O34  1  0.50000000  0.67324750  0.50000000  1
  O  O35  1  0.00000000  0.81550500  0.69797400  1
  O  O36  1  0.00000000  0.80979000  0.90002600  1
  O  O37  1  0.00000000  0.80979000  0.09997400  1
  O  O38  1  0.00000000  0.81550500  0.30202600  1
  O  O39  1  0.80671200  0.49495200  0.39908300  1
  O  O40  1  0.80671200  0.49495200  0.60091700  1
  O  O41  1  0.80727200  0.50523300  0.80076300  1
  O  O42  1  0.80763600  0.50059100  0.00000000  1
  O  O43  1  0.80727200  0.50523300  0.19923700  1
  O  O44  1  0.19328800  0.49495200  0.39908300  1
  O  O45  1  0.19328800  0.49495200  0.60091700  1
  O  O46  1  0.19272800  0.50523300  0.80076300  1
  O  O47  1  0.19236400  0.50059100  0.00000000  1
  O  O48  1  0.19272800  0.50523300  0.19923700  1
  O  O49  1  0.00000000  0.17324750  0.50000000  1
  F  F50  1  0.50000000  0.29548500  0.50000000  1
  F  F51  1  0.50000000  0.69174400  0.90110900  1
  F  F52  1  0.50000000  0.69564600  0.70312400  1
  F  F53  1  0.50000000  0.69564600  0.29687600  1
  F  F54  1  0.50000000  0.69174400  0.09889100  1
  F  F55  1  0.00000000  0.79548500  0.50000000  1
  F  F56  1  0.00000000  0.19174400  0.90110900  1
  F  F57  1  0.00000000  0.19564600  0.70312400  1
  F  F58  1  0.00000000  0.19564600  0.29687600  1
  F  F59  1  0.00000000  0.19174400  0.09889100  1
