# generated using pymatgen
data_Li4MnNi3(PO4)4
_symmetry_space_group_name_H-M   'P 1'
_cell_length_a   4.73502631
_cell_length_b   5.97256700
_cell_length_c   10.19185797
_cell_angle_alpha   90.00000000
_cell_angle_beta   90.08639743
_cell_angle_gamma   90.00000000
_symmetry_Int_Tables_number   1
_chemical_formula_structural   Li4MnNi3(PO4)4
_chemical_formula_sum   'Li4 Mn1 Ni3 P4 O16'
_cell_volume   288.22808491
_cell_formula_units_Z   1
loop_
 _symmetry_equiv_pos_site_id
 _symmetry_equiv_pos_as_xyz
  1  'x, y, z'
loop_
 _atom_site_type_symbol
 _atom_site_label
 _atom_site_symmetry_multiplicity
 _atom_site_fract_x
 _atom_site_fract_y
 _atom_site_fract_z
 _atom_site_occupancy
  Li  Li0  1  0.00043600  0.25003700  0.00166000  1
  Li  Li1  1  0.00043600  0.74996300  0.00166000  1
  Li  Li2  1  0.49889900  0.74951400  0.49779900  1
  Li  Li3  1  0.49889900  0.25048600  0.49779900  1
  Mn  Mn4  1  0.97521300  0.00000000  0.72108200  1
  Ni  Ni5  1  0.01954700  0.50000000  0.27417900  1
  Ni  Ni6  1  0.48109200  0.50000000  0.77815300  1
  Ni  Ni7  1  0.52080800  0.00000000  0.22335800  1
  P  P8  1  0.08760800  0.00000000  0.40154100  1
  P  P9  1  0.41754300  0.00000000  0.91063100  1
  P  P10  1  0.58421200  0.50000000  0.09480800  1
  P  P11  1  0.91131800  0.50000000  0.59300600  1
  O  O12  1  0.20865400  0.00000000  0.54282500  1
  O  O13  1  0.22598400  0.20718900  0.33159300  1
  O  O14  1  0.22598400  0.79281100  0.33159300  1
  O  O15  1  0.23474300  0.50000000  0.60176100  1
  O  O16  1  0.26058500  0.50000000  0.10059300  1
  O  O17  1  0.28150900  0.20674600  0.83917300  1
  O  O18  1  0.28150900  0.79325400  0.83917300  1
  O  O19  1  0.29476000  0.00000000  0.05199000  1
  O  O20  1  0.70157600  0.50000000  0.95258100  1
  O  O21  1  0.72540100  0.70595400  0.16552200  1
  O  O22  1  0.72540100  0.29404600  0.16552200  1
  O  O23  1  0.74041600  0.00000000  0.90703300  1
  O  O24  1  0.76351500  0.00000000  0.39872700  1
  O  O25  1  0.76695300  0.70352900  0.66326200  1
  O  O26  1  0.76695300  0.29647100  0.66326200  1
  O  O27  1  0.80004300  0.50000000  0.44971300  1
