# generated using pymatgen
data_Li2CrFe3O8
_symmetry_space_group_name_H-M   'P 1'
_cell_length_a   11.93536000
_cell_length_b   11.96723800
_cell_length_c   8.38566500
_cell_angle_alpha   90.00000000
_cell_angle_beta   90.00000000
_cell_angle_gamma   90.00000000
_symmetry_Int_Tables_number   1
_chemical_formula_structural   Li2CrFe3O8
_chemical_formula_sum   'Li16 Cr8 Fe24 O64'
_cell_volume   1197.75215211
_cell_formula_units_Z   8
loop_
 _symmetry_equiv_pos_site_id
 _symmetry_equiv_pos_as_xyz
  1  'x, y, z'
loop_
 _atom_site_type_symbol
 _atom_site_label
 _atom_site_symmetry_multiplicity
 _atom_site_fract_x
 _atom_site_fract_y
 _atom_site_fract_z
 _atom_site_occupancy
  Li  Li0  1  0.87562350  0.87619550  0.37876400  1
  Li  Li1  1  0.87562350  0.12380450  0.62123600  1
  Li  Li2  1  0.12437650  0.87619550  0.12123600  1
  Li  Li3  1  0.12437650  0.12380450  0.87876400  1
  Li  Li4  1  0.37573200  0.87486000  0.37732500  1
  Li  Li5  1  0.62426800  0.87486000  0.12267500  1
  Li  Li6  1  0.37573200  0.12514000  0.62267500  1
  Li  Li7  1  0.62426800  0.12514000  0.87732500  1
  Li  Li8  1  0.37562350  0.37619550  0.37876400  1
  Li  Li9  1  0.37562350  0.62380450  0.62123600  1
  Li  Li10  1  0.62437650  0.37619550  0.12123600  1
  Li  Li11  1  0.62437650  0.62380450  0.87876400  1
  Li  Li12  1  0.87573200  0.37486000  0.37732500  1
  Li  Li13  1  0.12426800  0.37486000  0.12267500  1
  Li  Li14  1  0.87573200  0.62514000  0.62267500  1
  Li  Li15  1  0.12426800  0.62514000  0.87732500  1
  Cr  Cr16  1  0.50000000  0.37626800  0.75000000  1
  Cr  Cr17  1  0.50000000  0.62373200  0.25000000  1
  Cr  Cr18  1  0.37319400  0.00000000  0.00000000  1
  Cr  Cr19  1  0.62680600  0.00000000  0.50000000  1
  Cr  Cr20  1  0.00000000  0.87626800  0.75000000  1
  Cr  Cr21  1  0.00000000  0.12373200  0.25000000  1
  Cr  Cr22  1  0.87319400  0.50000000  0.00000000  1
  Cr  Cr23  1  0.12680600  0.50000000  0.50000000  1
  Fe  Fe24  1  0.87669400  0.00000000  0.00000000  1
  Fe  Fe25  1  0.75004200  0.12486600  0.25253500  1
  Fe  Fe26  1  0.62422950  0.24945250  0.49953600  1
  Fe  Fe27  1  0.37577050  0.75054750  0.99953600  1
  Fe  Fe28  1  0.24995800  0.87513400  0.75253500  1
  Fe  Fe29  1  0.12330600  0.00000000  0.50000000  1
  Fe  Fe30  1  0.50000000  0.87430300  0.75000000  1
  Fe  Fe31  1  0.62422950  0.75054750  0.50046400  1
  Fe  Fe32  1  0.24995800  0.12486600  0.24746500  1
  Fe  Fe33  1  0.75004200  0.87513400  0.74746500  1
  Fe  Fe34  1  0.37577050  0.24945250  0.00046400  1
  Fe  Fe35  1  0.50000000  0.12569700  0.25000000  1
  Fe  Fe36  1  0.37669400  0.50000000  0.00000000  1
  Fe  Fe37  1  0.25004200  0.62486600  0.25253500  1
  Fe  Fe38  1  0.12422950  0.74945250  0.49953600  1
  Fe  Fe39  1  0.87577050  0.25054750  0.99953600  1
  Fe  Fe40  1  0.74995800  0.37513400  0.75253500  1
  Fe  Fe41  1  0.62330600  0.50000000  0.50000000  1
  Fe  Fe42  1  0.00000000  0.37430300  0.75000000  1
  Fe  Fe43  1  0.12422950  0.25054750  0.50046400  1
  Fe  Fe44  1  0.74995800  0.62486600  0.24746500  1
  Fe  Fe45  1  0.25004200  0.37513400  0.74746500  1
  Fe  Fe46  1  0.87577050  0.74945250  0.00046400  1
  Fe  Fe47  1  0.00000000  0.62569700  0.25000000  1
  O  O48  1  0.87664500  0.98848500  0.76007200  1
  O  O49  1  0.48692350  0.37696650  0.98550900  1
  O  O50  1  0.62641450  0.23994850  0.26056100  1
  O  O51  1  0.87664500  0.01151500  0.23992800  1
  O  O52  1  0.74162100  0.12543000  0.48139900  1
  O  O53  1  0.76101250  0.12458450  0.01943300  1
  O  O54  1  0.62444250  0.26437250  0.74067100  1
  O  O55  1  0.51307650  0.37696650  0.51449100  1
  O  O56  1  0.48692350  0.62303350  0.01449100  1
  O  O57  1  0.37555750  0.73562750  0.24067100  1
  O  O58  1  0.23898750  0.87541550  0.51943300  1
  O  O59  1  0.25837900  0.87457000  0.98139900  1
  O  O60  1  0.12335500  0.98848500  0.73992800  1
  O  O61  1  0.37358550  0.76005150  0.76056100  1
  O  O62  1  0.51307650  0.62303350  0.48550900  1
  O  O63  1  0.12335500  0.01151500  0.26007200  1
  O  O64  1  0.48459550  0.87437450  0.99016700  1
  O  O65  1  0.37202450  0.98674350  0.76116200  1
  O  O66  1  0.23898750  0.12458450  0.48056700  1
  O  O67  1  0.51540450  0.87437450  0.50983300  1
  O  O68  1  0.62444250  0.73562750  0.25932900  1
  O  O69  1  0.62641450  0.76005150  0.73943900  1
  O  O70  1  0.25837900  0.12543000  0.01860100  1
  O  O71  1  0.37202450  0.01325650  0.23883800  1
  O  O72  1  0.62797550  0.98674350  0.73883800  1
  O  O73  1  0.74162100  0.87457000  0.51860100  1
  O  O74  1  0.37358550  0.23994850  0.23943900  1
  O  O75  1  0.37555750  0.26437250  0.75932900  1
  O  O76  1  0.48459550  0.12562550  0.00983300  1
  O  O77  1  0.76101250  0.87541550  0.98056700  1
  O  O78  1  0.62797550  0.01325650  0.26116200  1
  O  O79  1  0.51540450  0.12562550  0.49016700  1
  O  O80  1  0.37664500  0.48848500  0.76007200  1
  O  O81  1  0.98692350  0.87696650  0.98550900  1
  O  O82  1  0.12641450  0.73994850  0.26056100  1
  O  O83  1  0.37664500  0.51151500  0.23992800  1
  O  O84  1  0.24162100  0.62543000  0.48139900  1
  O  O85  1  0.26101250  0.62458450  0.01943300  1
  O  O86  1  0.12444250  0.76437250  0.74067100  1
  O  O87  1  0.01307650  0.87696650  0.51449100  1
  O  O88  1  0.98692350  0.12303350  0.01449100  1
  O  O89  1  0.87555750  0.23562750  0.24067100  1
  O  O90  1  0.73898750  0.37541550  0.51943300  1
  O  O91  1  0.75837900  0.37457000  0.98139900  1
  O  O92  1  0.62335500  0.48848500  0.73992800  1
  O  O93  1  0.87358550  0.26005150  0.76056100  1
  O  O94  1  0.01307650  0.12303350  0.48550900  1
  O  O95  1  0.62335500  0.51151500  0.26007200  1
  O  O96  1  0.98459550  0.37437450  0.99016700  1
  O  O97  1  0.87202450  0.48674350  0.76116200  1
  O  O98  1  0.73898750  0.62458450  0.48056700  1
  O  O99  1  0.01540450  0.37437450  0.50983300  1
  O  O100  1  0.12444250  0.23562750  0.25932900  1
  O  O101  1  0.12641450  0.26005150  0.73943900  1
  O  O102  1  0.75837900  0.62543000  0.01860100  1
  O  O103  1  0.87202450  0.51325650  0.23883800  1
  O  O104  1  0.12797550  0.48674350  0.73883800  1
  O  O105  1  0.24162100  0.37457000  0.51860100  1
  O  O106  1  0.87358550  0.73994850  0.23943900  1
  O  O107  1  0.87555750  0.76437250  0.75932900  1
  O  O108  1  0.98459550  0.62562550  0.00983300  1
  O  O109  1  0.26101250  0.37541550  0.98056700  1
  O  O110  1  0.12797550  0.51325650  0.26116200  1
  O  O111  1  0.01540450  0.62562550  0.49016700  1
