# generated using pymatgen
data_Li4Nb3V3(NiO8)2
_symmetry_space_group_name_H-M   'P 1'
_cell_length_a   10.51580000
_cell_length_b   6.08894800
_cell_length_c   9.88159432
_cell_angle_alpha   90.00000000
_cell_angle_beta   90.39288550
_cell_angle_gamma   90.00000000
_symmetry_Int_Tables_number   1
_chemical_formula_structural   Li4Nb3V3(NiO8)2
_chemical_formula_sum   'Li8 Nb6 V6 Ni4 O32'
_cell_volume   632.70518374
_cell_formula_units_Z   2
loop_
 _symmetry_equiv_pos_site_id
 _symmetry_equiv_pos_as_xyz
  1  'x, y, z'
loop_
 _atom_site_type_symbol
 _atom_site_label
 _atom_site_symmetry_multiplicity
 _atom_site_fract_x
 _atom_site_fract_y
 _atom_site_fract_z
 _atom_site_occupancy
  Li  Li0  1  0.33392800  0.00000000  0.90027300  1
  Li  Li1  1  0.99400500  0.00000000  0.00344600  1
  Li  Li2  1  0.98789800  0.00000000  0.49208000  1
  Li  Li3  1  0.66739000  0.00000000  0.38251000  1
  Li  Li4  1  0.83392800  0.50000000  0.90027300  1
  Li  Li5  1  0.49400500  0.50000000  0.00344600  1
  Li  Li6  1  0.48789800  0.50000000  0.49208000  1
  Li  Li7  1  0.16739000  0.50000000  0.38251000  1
  Nb  Nb8  1  0.17110100  0.00000000  0.21875800  1
  Nb  Nb9  1  0.58777500  0.75176300  0.71498500  1
  Nb  Nb10  1  0.58777500  0.24823700  0.71498500  1
  Nb  Nb11  1  0.67110100  0.50000000  0.21875800  1
  Nb  Nb12  1  0.08777500  0.25176300  0.71498500  1
  Nb  Nb13  1  0.08777500  0.74823700  0.71498500  1
  V  V14  1  0.41681850  0.75625750  0.21214300  1
  V  V15  1  0.41681850  0.24374250  0.21214300  1
  V  V16  1  0.83192900  0.00000000  0.71194100  1
  V  V17  1  0.91681850  0.25625750  0.21214300  1
  V  V18  1  0.91681850  0.74374250  0.21214300  1
  V  V19  1  0.33192900  0.50000000  0.71194100  1
  Ni  Ni20  1  0.34029000  0.00000000  0.48058900  1
  Ni  Ni21  1  0.67271600  0.00000000  0.00775300  1
  Ni  Ni22  1  0.84029000  0.50000000  0.48058900  1
  Ni  Ni23  1  0.17271600  0.50000000  0.00775300  1
  O  O24  1  0.42168800  0.73859400  0.60699300  1
  O  O25  1  0.48252600  0.00000000  0.33143200  1
  O  O26  1  0.32647500  0.00000000  0.09839800  1
  O  O27  1  0.00220000  0.00000000  0.31378900  1
  O  O28  1  0.00292500  0.00000000  0.81762600  1
  O  O29  1  0.42168800  0.26140600  0.60699300  1
  O  O30  1  0.25860950  0.77672150  0.33647600  1
  O  O31  1  0.25860950  0.22327850  0.33647600  1
  O  O32  1  0.84149700  0.00000000  0.10951500  1
  O  O33  1  0.15964100  0.00000000  0.60062000  1
  O  O34  1  0.74014400  0.77306200  0.83155800  1
  O  O35  1  0.74014400  0.22693800  0.83155800  1
  O  O36  1  0.66101400  0.00000000  0.59744600  1
  O  O37  1  0.58230800  0.74064100  0.10330600  1
  O  O38  1  0.51607100  0.00000000  0.82997400  1
  O  O39  1  0.58230800  0.25935900  0.10330600  1
  O  O40  1  0.92168800  0.23859400  0.60699300  1
  O  O41  1  0.98252600  0.50000000  0.33143200  1
  O  O42  1  0.82647500  0.50000000  0.09839800  1
  O  O43  1  0.50220000  0.50000000  0.31378900  1
  O  O44  1  0.50292500  0.50000000  0.81762600  1
  O  O45  1  0.92168800  0.76140600  0.60699300  1
  O  O46  1  0.75860950  0.27672150  0.33647600  1
  O  O47  1  0.75860950  0.72327850  0.33647600  1
  O  O48  1  0.34149700  0.50000000  0.10951500  1
  O  O49  1  0.65964100  0.50000000  0.60062000  1
  O  O50  1  0.24014400  0.27306200  0.83155800  1
  O  O51  1  0.24014400  0.72693800  0.83155800  1
  O  O52  1  0.16101400  0.50000000  0.59744600  1
  O  O53  1  0.08230800  0.24064100  0.10330600  1
  O  O54  1  0.01607100  0.50000000  0.82997400  1
  O  O55  1  0.08230800  0.75935900  0.10330600  1
