# generated using pymatgen
data_Er(Bi3O5)4
_symmetry_space_group_name_H-M   'P 1'
_cell_length_a   10.33600400
_cell_length_b   10.33600400
_cell_length_c   10.33600400
_cell_angle_alpha   90.00000000
_cell_angle_beta   90.00000000
_cell_angle_gamma   90.00000000
_symmetry_Int_Tables_number   1
_chemical_formula_structural   Er(Bi3O5)4
_chemical_formula_sum   'Er2 Bi24 O40'
_cell_volume   1104.22609505
_cell_formula_units_Z   2
loop_
 _symmetry_equiv_pos_site_id
 _symmetry_equiv_pos_as_xyz
  1  'x, y, z'
loop_
 _atom_site_type_symbol
 _atom_site_label
 _atom_site_symmetry_multiplicity
 _atom_site_fract_x
 _atom_site_fract_y
 _atom_site_fract_z
 _atom_site_occupancy
  Er  Er0  1  0.00000000  0.00000000  0.00000000  1
  Er  Er1  1  0.50000000  0.50000000  0.50000000  1
  Bi  Bi2  1  0.99248450  0.17639750  0.68197150  1
  Bi  Bi3  1  0.32360250  0.81802850  0.49248450  1
  Bi  Bi4  1  0.00751550  0.17639750  0.31802850  1
  Bi  Bi5  1  0.81802850  0.49248450  0.32360250  1
  Bi  Bi6  1  0.32360250  0.18197150  0.50751550  1
  Bi  Bi7  1  0.31802850  0.00751550  0.17639750  1
  Bi  Bi8  1  0.18197150  0.50751550  0.32360250  1
  Bi  Bi9  1  0.17639750  0.31802850  0.00751550  1
  Bi  Bi10  1  0.68197150  0.99248450  0.17639750  1
  Bi  Bi11  1  0.50751550  0.32360250  0.18197150  1
  Bi  Bi12  1  0.17639750  0.68197150  0.99248450  1
  Bi  Bi13  1  0.49248450  0.32360250  0.81802850  1
  Bi  Bi14  1  0.49248450  0.67639750  0.18197150  1
  Bi  Bi15  1  0.82360250  0.31802850  0.99248450  1
  Bi  Bi16  1  0.50751550  0.67639750  0.81802850  1
  Bi  Bi17  1  0.31802850  0.99248450  0.82360250  1
  Bi  Bi18  1  0.82360250  0.68197150  0.00751550  1
  Bi  Bi19  1  0.81802850  0.50751550  0.67639750  1
  Bi  Bi20  1  0.68197150  0.00751550  0.82360250  1
  Bi  Bi21  1  0.67639750  0.81802850  0.50751550  1
  Bi  Bi22  1  0.18197150  0.49248450  0.67639750  1
  Bi  Bi23  1  0.00751550  0.82360250  0.68197150  1
  Bi  Bi24  1  0.67639750  0.18197150  0.49248450  1
  Bi  Bi25  1  0.99248450  0.82360250  0.31802850  1
  O  O26  1  0.86884750  0.24645950  0.50975950  1
  O  O27  1  0.25354050  0.00975950  0.63115250  1
  O  O28  1  0.32152350  0.67847650  0.32152350  1
  O  O29  1  0.67847650  0.32152350  0.32152350  1
  O  O30  1  0.25354050  0.99024050  0.36884750  1
  O  O31  1  0.13115250  0.24645950  0.49024050  1
  O  O32  1  0.12007550  0.87992450  0.12007550  1
  O  O33  1  0.87992450  0.12007550  0.12007550  1
  O  O34  1  0.99024050  0.36884750  0.25354050  1
  O  O35  1  0.50975950  0.86884750  0.24645950  1
  O  O36  1  0.17847650  0.17847650  0.17847650  1
  O  O37  1  0.12007550  0.12007550  0.87992450  1
  O  O38  1  0.49024050  0.13115250  0.24645950  1
  O  O39  1  0.00975950  0.63115250  0.25354050  1
  O  O40  1  0.37992450  0.37992450  0.37992450  1
  O  O41  1  0.24645950  0.49024050  0.13115250  1
  O  O42  1  0.36884750  0.25354050  0.99024050  1
  O  O43  1  0.63115250  0.25354050  0.00975950  1
  O  O44  1  0.24645950  0.50975950  0.86884750  1
  O  O45  1  0.32152350  0.32152350  0.67847650  1
  O  O46  1  0.36884750  0.74645950  0.00975950  1
  O  O47  1  0.75354050  0.50975950  0.13115250  1
  O  O48  1  0.82152350  0.17847650  0.82152350  1
  O  O49  1  0.17847650  0.82152350  0.82152350  1
  O  O50  1  0.75354050  0.49024050  0.86884750  1
  O  O51  1  0.63115250  0.74645950  0.99024050  1
  O  O52  1  0.62007550  0.37992450  0.62007550  1
  O  O53  1  0.37992450  0.62007550  0.62007550  1
  O  O54  1  0.49024050  0.86884750  0.75354050  1
  O  O55  1  0.00975950  0.36884750  0.74645950  1
  O  O56  1  0.67847650  0.67847650  0.67847650  1
  O  O57  1  0.62007550  0.62007550  0.37992450  1
  O  O58  1  0.99024050  0.63115250  0.74645950  1
  O  O59  1  0.50975950  0.13115250  0.75354050  1
  O  O60  1  0.87992450  0.87992450  0.87992450  1
  O  O61  1  0.74645950  0.99024050  0.63115250  1
  O  O62  1  0.86884750  0.75354050  0.49024050  1
  O  O63  1  0.13115250  0.75354050  0.50975950  1
  O  O64  1  0.74645950  0.00975950  0.36884750  1
  O  O65  1  0.82152350  0.82152350  0.17847650  1
