# generated using pymatgen
data_Li4V3CoO10
_symmetry_space_group_name_H-M   'P 1'
_cell_length_a   9.41279510
_cell_length_b   9.39321686
_cell_length_c   4.65871826
_cell_angle_alpha   90.00000000
_cell_angle_beta   90.42800497
_cell_angle_gamma   90.00000000
_symmetry_Int_Tables_number   1
_chemical_formula_structural   Li4V3CoO10
_chemical_formula_sum   'Li8 V6 Co2 O20'
_cell_volume   411.89572407
_cell_formula_units_Z   2
loop_
 _symmetry_equiv_pos_site_id
 _symmetry_equiv_pos_as_xyz
  1  'x, y, z'
loop_
 _atom_site_type_symbol
 _atom_site_label
 _atom_site_symmetry_multiplicity
 _atom_site_fract_x
 _atom_site_fract_y
 _atom_site_fract_z
 _atom_site_occupancy
  Li  Li0  1  0.73775450  0.27158050  0.46638000  1
  Li  Li1  1  0.00000000  0.51816800  0.50000000  1
  Li  Li2  1  0.76224550  0.77158050  0.53362000  1
  Li  Li3  1  0.00000000  0.99229550  0.50000000  1
  Li  Li4  1  0.23775450  0.77158050  0.46638000  1
  Li  Li5  1  0.50000000  0.01816800  0.50000000  1
  Li  Li6  1  0.26224550  0.27158050  0.53362000  1
  Li  Li7  1  0.50000000  0.49229550  0.50000000  1
  V  V8  1  0.75227200  0.50022400  0.89805200  1
  V  V9  1  0.50000000  0.75334500  0.00000000  1
  V  V10  1  0.74772800  0.00022400  0.10194800  1
  V  V11  1  0.25227200  0.00022400  0.89805200  1
  V  V12  1  0.00000000  0.25334500  0.00000000  1
  V  V13  1  0.24772800  0.50022400  0.10194800  1
  Co  Co14  1  0.00000000  0.75446500  0.00000000  1
  Co  Co15  1  0.50000000  0.25446500  0.00000000  1
  O  O16  1  0.39482100  0.64788300  0.21903200  1
  O  O17  1  0.75812450  0.48638450  0.25883500  1
  O  O18  1  0.60517900  0.64788300  0.78096800  1
  O  O19  1  0.39731900  0.85640300  0.76711300  1
  O  O20  1  0.60268100  0.85640300  0.23288700  1
  O  O21  1  0.88452400  0.63927800  0.76626800  1
  O  O22  1  0.11547600  0.63927800  0.23373200  1
  O  O23  1  0.88620700  0.86766300  0.23951300  1
  O  O24  1  0.74187550  0.98638450  0.74116500  1
  O  O25  1  0.11379300  0.86766300  0.76048700  1
  O  O26  1  0.89482100  0.14788300  0.21903200  1
  O  O27  1  0.25812450  0.98638450  0.25883500  1
  O  O28  1  0.10517900  0.14788300  0.78096800  1
  O  O29  1  0.89731900  0.35640300  0.76711300  1
  O  O30  1  0.10268100  0.35640300  0.23288700  1
  O  O31  1  0.38452400  0.13927800  0.76626800  1
  O  O32  1  0.61547600  0.13927800  0.23373200  1
  O  O33  1  0.38620700  0.36766300  0.23951300  1
  O  O34  1  0.24187550  0.48638450  0.74116500  1
  O  O35  1  0.61379300  0.36766300  0.76048700  1
