# generated using pymatgen
data_Li2Mn3CuO8
_symmetry_space_group_name_H-M   'P 1'
_cell_length_a   5.87163360
_cell_length_b   5.87163360
_cell_length_c   14.68626893
_cell_angle_alpha   90.00000000
_cell_angle_beta   90.00000000
_cell_angle_gamma   120.00000000
_symmetry_Int_Tables_number   1
_chemical_formula_structural   Li2Mn3CuO8
_chemical_formula_sum   'Li6 Mn9 Cu3 O24'
_cell_volume   438.49031162
_cell_formula_units_Z   3
loop_
 _symmetry_equiv_pos_site_id
 _symmetry_equiv_pos_as_xyz
  1  'x, y, z'
loop_
 _atom_site_type_symbol
 _atom_site_label
 _atom_site_symmetry_multiplicity
 _atom_site_fract_x
 _atom_site_fract_y
 _atom_site_fract_z
 _atom_site_occupancy
  Li  Li0  1  0.00000000  0.00000000  0.11980400  1
  Li  Li1  1  0.66666667  0.33333333  0.21352933  1
  Li  Li2  1  0.66666667  0.33333333  0.45313733  1
  Li  Li3  1  0.33333333  0.66666667  0.54686267  1
  Li  Li4  1  0.33333333  0.66666667  0.78647067  1
  Li  Li5  1  0.00000000  0.00000000  0.88019600  1
  Mn  Mn6  1  0.00000000  0.50000000  0.00000000  1
  Mn  Mn7  1  0.50000000  0.50000000  0.00000000  1
  Mn  Mn8  1  0.50000000  0.00000000  0.00000000  1
  Mn  Mn9  1  0.66666667  0.83333333  0.33333333  1
  Mn  Mn10  1  0.16666667  0.83333333  0.33333333  1
  Mn  Mn11  1  0.16666667  0.33333333  0.33333333  1
  Mn  Mn12  1  0.33333333  0.16666667  0.66666667  1
  Mn  Mn13  1  0.83333333  0.16666667  0.66666667  1
  Mn  Mn14  1  0.83333333  0.66666667  0.66666667  1
  Cu  Cu15  1  0.33333333  0.66666667  0.16666667  1
  Cu  Cu16  1  1.00000000  1.00000000  0.50000000  1
  Cu  Cu17  1  0.66666667  0.33333333  0.83333333  1
  O  O18  1  0.00000000  0.00000000  0.26307600  1
  O  O19  1  0.18182100  0.36364200  0.07176200  1
  O  O20  1  0.18182100  0.81817900  0.07176200  1
  O  O21  1  0.63635800  0.81817900  0.07176200  1
  O  O22  1  0.03030867  0.51515433  0.26157133  1
  O  O23  1  0.48484567  0.51515433  0.26157133  1
  O  O24  1  0.48484567  0.96969133  0.26157133  1
  O  O25  1  0.66666667  0.33333333  0.07025733  1
  O  O26  1  0.66666667  0.33333333  0.59640933  1
  O  O27  1  0.84848767  0.69697533  0.40509533  1
  O  O28  1  0.84848767  0.15151233  0.40509533  1
  O  O29  1  0.30302467  0.15151233  0.40509533  1
  O  O30  1  0.69697533  0.84848767  0.59490467  1
  O  O31  1  0.15151233  0.84848767  0.59490467  1
  O  O32  1  0.15151233  0.30302467  0.59490467  1
  O  O33  1  0.33333333  0.66666667  0.40359067  1
  O  O34  1  0.33333333  0.66666667  0.92974267  1
  O  O35  1  0.51515433  0.03030867  0.73842867  1
  O  O36  1  0.51515433  0.48484567  0.73842867  1
  O  O37  1  0.96969133  0.48484567  0.73842867  1
  O  O38  1  0.36364200  0.18182100  0.92823800  1
  O  O39  1  0.81817900  0.18182100  0.92823800  1
  O  O40  1  0.81817900  0.63635800  0.92823800  1
  O  O41  1  0.00000000  0.00000000  0.73692400  1
