# generated using pymatgen
data_Mn3(O2F)2
_symmetry_space_group_name_H-M   'P 1'
_cell_length_a   4.62596249
_cell_length_b   5.55737742
_cell_length_c   7.65965902
_cell_angle_alpha   86.04704482
_cell_angle_beta   88.97078673
_cell_angle_gamma   87.94452018
_symmetry_Int_Tables_number   1
_chemical_formula_structural   Mn3(O2F)2
_chemical_formula_sum   'Mn6 O8 F4'
_cell_volume   196.29763246
_cell_formula_units_Z   2
loop_
 _symmetry_equiv_pos_site_id
 _symmetry_equiv_pos_as_xyz
  1  'x, y, z'
loop_
 _atom_site_type_symbol
 _atom_site_label
 _atom_site_symmetry_multiplicity
 _atom_site_fract_x
 _atom_site_fract_y
 _atom_site_fract_z
 _atom_site_occupancy
  Mn  Mn0  1  0.48626900  0.50480200  0.99473300  1
  Mn  Mn1  1  0.50185600  0.82848000  0.66127000  1
  Mn  Mn2  1  0.50602700  0.17960700  0.35372900  1
  Mn  Mn3  1  0.00007400  0.33652800  0.67132800  1
  Mn  Mn4  1  0.97343000  0.65339500  0.32043400  1
  Mn  Mn5  1  0.02062000  0.99105900  0.99867500  1
  O  O6  1  0.80254400  0.36789200  0.44015000  1
  O  O7  1  0.80795900  0.70723000  0.09636500  1
  O  O8  1  0.68681300  0.53451800  0.76825700  1
  O  O9  1  0.70301300  0.87890800  0.43490200  1
  O  O10  1  0.30773300  0.13077600  0.56987200  1
  O  O11  1  0.30754000  0.46456000  0.23182500  1
  O  O12  1  0.30677000  0.79080800  0.89064700  1
  O  O13  1  0.19343400  0.29021000  0.90019300  1
  F  F14  1  0.79900400  0.03136400  0.77218500  1
  F  F15  1  0.69848500  0.20012400  0.10618500  1
  F  F16  1  0.18809000  0.63967200  0.54862800  1
  F  F17  1  0.21033900  0.97006600  0.24062100  1
