# generated using pymatgen
data_V6O7F5
_symmetry_space_group_name_H-M   'P 1'
_cell_length_a   9.20692200
_cell_length_b   6.49875200
_cell_length_c   7.48984876
_cell_angle_alpha   90.00000000
_cell_angle_beta   113.67704370
_cell_angle_gamma   90.00000000
_symmetry_Int_Tables_number   1
_chemical_formula_structural   V6O7F5
_chemical_formula_sum   'V12 O14 F10'
_cell_volume   410.42073217
_cell_formula_units_Z   2
loop_
 _symmetry_equiv_pos_site_id
 _symmetry_equiv_pos_as_xyz
  1  'x, y, z'
loop_
 _atom_site_type_symbol
 _atom_site_label
 _atom_site_symmetry_multiplicity
 _atom_site_fract_x
 _atom_site_fract_y
 _atom_site_fract_z
 _atom_site_occupancy
  V  V0  1  0.81286550  0.49282550  0.84271400  1
  V  V1  1  0.16560550  0.49542650  0.67949900  1
  V  V2  1  0.83439450  0.49542650  0.32050100  1
  V  V3  1  0.18713450  0.49282550  0.15728600  1
  V  V4  1  0.00000000  0.99613200  0.50000000  1
  V  V5  1  0.00000000  0.02623200  0.00000000  1
  V  V6  1  0.31286550  0.99282550  0.84271400  1
  V  V7  1  0.66560550  0.99542650  0.67949900  1
  V  V8  1  0.33439450  0.99542650  0.32050100  1
  V  V9  1  0.68713450  0.99282550  0.15728600  1
  V  V10  1  0.50000000  0.49613200  0.50000000  1
  V  V11  1  0.50000000  0.52623200  0.00000000  1
  O  O12  1  0.16445950  0.19335950  0.66527100  1
  O  O13  1  0.83554050  0.19335950  0.33472900  1
  O  O14  1  0.27440550  0.50045650  0.96583300  1
  O  O15  1  0.72559450  0.50045650  0.03416700  1
  O  O16  1  0.00000000  0.32132400  0.00000000  1
  O  O17  1  0.15904850  0.79466350  0.66550200  1
  O  O18  1  0.84095150  0.79466350  0.33449800  1
  O  O19  1  0.66445950  0.69335950  0.66527100  1
  O  O20  1  0.33554050  0.69335950  0.33472900  1
  O  O21  1  0.77440550  0.00045650  0.96583300  1
  O  O22  1  0.22559450  0.00045650  0.03416700  1
  O  O23  1  0.50000000  0.82132400  0.00000000  1
  O  O24  1  0.65904850  0.29466350  0.66550200  1
  O  O25  1  0.34095150  0.29466350  0.33449800  1
  F  F26  1  0.92746300  0.49593900  0.63072900  1
  F  F27  1  0.60308200  0.50283700  0.29944600  1
  F  F28  1  0.39691800  0.50283700  0.70055400  1
  F  F29  1  0.07253700  0.49593900  0.36927100  1
  F  F30  1  0.00000000  0.70529600  0.00000000  1
  F  F31  1  0.42746300  0.99593900  0.63072900  1
  F  F32  1  0.10308200  0.00283700  0.29944600  1
  F  F33  1  0.89691800  0.00283700  0.70055400  1
  F  F34  1  0.57253700  0.99593900  0.36927100  1
  F  F35  1  0.50000000  0.20529600  0.00000000  1
