# generated using pymatgen
data_ZrMnO3
_symmetry_space_group_name_H-M   'P 1'
_cell_length_a   5.49608062
_cell_length_b   5.49608062
_cell_length_c   14.65020736
_cell_angle_alpha   90.00000000
_cell_angle_beta   90.00000000
_cell_angle_gamma   120.00000000
_symmetry_Int_Tables_number   1
_chemical_formula_structural   ZrMnO3
_chemical_formula_sum   'Zr6 Mn6 O18'
_cell_volume   383.24861380
_cell_formula_units_Z   6
loop_
 _symmetry_equiv_pos_site_id
 _symmetry_equiv_pos_as_xyz
  1  'x, y, z'
loop_
 _atom_site_type_symbol
 _atom_site_label
 _atom_site_symmetry_multiplicity
 _atom_site_fract_x
 _atom_site_fract_y
 _atom_site_fract_z
 _atom_site_occupancy
  Zr  Zr0  1  0.66666667  0.33333333  0.47823533  1
  Zr  Zr1  1  0.33333333  0.66666667  0.52176467  1
  Zr  Zr2  1  0.33333333  0.66666667  0.81156867  1
  Zr  Zr3  1  0.00000000  0.00000000  0.85509800  1
  Zr  Zr4  1  0.00000000  0.00000000  0.14490200  1
  Zr  Zr5  1  0.66666667  0.33333333  0.18843133  1
  Mn  Mn6  1  0.00000000  0.00000000  0.64080267  1
  Mn  Mn7  1  0.00000000  0.00000000  0.35919733  1
  Mn  Mn8  1  0.66666667  0.33333333  0.97413600  1
  Mn  Mn9  1  0.66666667  0.33333333  0.69253067  1
  Mn  Mn10  1  0.33333333  0.66666667  0.30746933  1
  Mn  Mn11  1  0.33333333  0.66666667  0.02586400  1
  O  O12  1  0.34760700  0.37456900  0.41994800  1
  O  O13  1  0.62543100  0.97303800  0.41994800  1
  O  O14  1  0.02696200  0.65239300  0.41994800  1
  O  O15  1  0.97303800  0.34760700  0.58005200  1
  O  O16  1  0.37456900  0.02696200  0.58005200  1
  O  O17  1  0.65239300  0.62543100  0.58005200  1
  O  O18  1  0.01427367  0.70790233  0.75328133  1
  O  O19  1  0.29209767  0.30637133  0.75328133  1
  O  O20  1  0.69362867  0.98572633  0.75328133  1
  O  O21  1  0.63970467  0.68094033  0.91338533  1
  O  O22  1  0.04123567  0.36029533  0.91338533  1
  O  O23  1  0.31905967  0.95876433  0.91338533  1
  O  O24  1  0.68094033  0.04123567  0.08661467  1
  O  O25  1  0.95876433  0.63970467  0.08661467  1
  O  O26  1  0.36029533  0.31905967  0.08661467  1
  O  O27  1  0.30637133  0.01427367  0.24671867  1
  O  O28  1  0.70790233  0.69362867  0.24671867  1
  O  O29  1  0.98572633  0.29209767  0.24671867  1
