# generated using pymatgen
data_Fe3Co2Ni(PO4)6
_symmetry_space_group_name_H-M   'P 1'
_cell_length_a   8.63024215
_cell_length_b   8.63024215
_cell_length_c   20.29354928
_cell_angle_alpha   90.00000000
_cell_angle_beta   90.00000000
_cell_angle_gamma   120.00000000
_symmetry_Int_Tables_number   1
_chemical_formula_structural   Fe3Co2Ni(PO4)6
_chemical_formula_sum   'Fe9 Co6 Ni3 P18 O72'
_cell_volume   1308.98480380
_cell_formula_units_Z   3
loop_
 _symmetry_equiv_pos_site_id
 _symmetry_equiv_pos_as_xyz
  1  'x, y, z'
loop_
 _atom_site_type_symbol
 _atom_site_label
 _atom_site_symmetry_multiplicity
 _atom_site_fract_x
 _atom_site_fract_y
 _atom_site_fract_z
 _atom_site_occupancy
  Fe  Fe0  1  0.33333333  0.66666667  0.31188467  1
  Fe  Fe1  1  0.33333333  0.66666667  0.52225467  1
  Fe  Fe2  1  0.33333333  0.66666667  0.02226667  1
  Fe  Fe3  1  0.00000000  0.00000000  0.64521800  1
  Fe  Fe4  1  0.00000000  0.00000000  0.85558800  1
  Fe  Fe5  1  0.00000000  0.00000000  0.35560000  1
  Fe  Fe6  1  0.66666667  0.33333333  0.97855133  1
  Fe  Fe7  1  0.66666667  0.33333333  0.18892133  1
  Fe  Fe8  1  0.66666667  0.33333333  0.68893333  1
  Co  Co9  1  0.33333333  0.66666667  0.66733667  1
  Co  Co10  1  0.33333333  0.66666667  0.16720267  1
  Co  Co11  1  0.00000000  0.00000000  0.00067000  1
  Co  Co12  1  0.00000000  0.00000000  0.50053600  1
  Co  Co13  1  0.66666667  0.33333333  0.33400333  1
  Co  Co14  1  0.66666667  0.33333333  0.83386933  1
  Ni  Ni15  1  0.33333333  0.66666667  0.80918267  1
  Ni  Ni16  1  0.00000000  0.00000000  0.14251600  1
  Ni  Ni17  1  0.66666667  0.33333333  0.47584933  1
  P  P18  1  0.70352900  0.70219100  0.25014200  1
  P  P19  1  0.29780900  0.00133800  0.25014200  1
  P  P20  1  0.99866200  0.29647100  0.25014200  1
  P  P21  1  0.66911867  0.03600133  0.08292433  1
  P  P22  1  0.36688267  0.33088133  0.08292433  1
  P  P23  1  0.96399867  0.63311733  0.08292433  1
  P  P24  1  0.37019567  0.03552433  0.58347533  1
  P  P25  1  0.96447567  0.33467133  0.58347533  1
  P  P26  1  0.66532867  0.62980433  0.58347533  1
  P  P27  1  0.33578533  0.36933467  0.41625767  1
  P  P28  1  0.03354933  0.66421467  0.41625767  1
  P  P29  1  0.63066533  0.96645067  0.41625767  1
  P  P30  1  0.03686233  0.36885767  0.91680867  1
  P  P31  1  0.63114233  0.66800467  0.91680867  1
  P  P32  1  0.33199533  0.96313767  0.91680867  1
  P  P33  1  0.00245200  0.70266800  0.74959100  1
  P  P34  1  0.70021600  0.99754800  0.74959100  1
  P  P35  1  0.29733200  0.29978400  0.74959100  1
  O  O36  1  0.52614733  0.65566667  0.97890367  1
  O  O37  1  0.34433333  0.87048067  0.97890367  1
  O  O38  1  0.12951933  0.47385267  0.97890367  1
  O  O39  1  0.67817700  0.50907600  0.26216300  1
  O  O40  1  0.80162400  0.79266500  0.18753800  1
  O  O41  1  0.50925933  0.67333367  0.23948667  1
  O  O42  1  0.49092400  0.16910100  0.26216300  1
  O  O43  1  0.32666633  0.83592567  0.23948667  1
  O  O44  1  0.68141700  0.14177100  0.14493200  1
  O  O45  1  0.16407433  0.49074067  0.23948667  1
  O  O46  1  0.83473400  0.01035600  0.07079500  1
  O  O47  1  0.46035400  0.31858300  0.14493200  1
  O  O48  1  0.20733500  0.00895900  0.18753800  1
  O  O49  1  0.83089900  0.32182300  0.26216300  1
  O  O50  1  0.50164700  0.84487900  0.09518000  1
  O  O51  1  0.99104100  0.19837600  0.18753800  1
  O  O52  1  0.34323200  0.49835300  0.09518000  1
  O  O53  1  0.17562200  0.16526600  0.07079500  1
  O  O54  1  0.15512100  0.65676800  0.09518000  1
  O  O55  1  0.85822900  0.53964600  0.14493200  1
  O  O56  1  0.98964400  0.82437800  0.07079500  1
  O  O57  1  0.53838633  0.85926567  0.35455867  1
  O  O58  1  0.32087933  0.46161367  0.35455867  1
  O  O59  1  0.14073433  0.67912067  0.35455867  1
  O  O60  1  0.19281400  0.98900000  0.31223700  1
  O  O61  1  0.01100000  0.20381400  0.31223700  1
  O  O62  1  0.79618600  0.80718600  0.31223700  1
  O  O63  1  0.34484367  0.84240933  0.59549633  1
  O  O64  1  0.46829067  0.12599833  0.52087133  1
  O  O65  1  0.17592600  0.00666700  0.57282000  1
  O  O66  1  0.15759067  0.50243433  0.59549633  1
  O  O67  1  0.99333300  0.16925900  0.57282000  1
  O  O68  1  0.34808367  0.47510433  0.47826533  1
  O  O69  1  0.83074100  0.82407400  0.57282000  1
  O  O70  1  0.50140067  0.34368933  0.40412833  1
  O  O71  1  0.12702067  0.65191633  0.47826533  1
  O  O72  1  0.87400167  0.34229233  0.52087133  1
  O  O73  1  0.49756567  0.65515633  0.59549633  1
  O  O74  1  0.16831367  0.17821233  0.42851333  1
  O  O75  1  0.65770767  0.53170933  0.52087133  1
  O  O76  1  0.00989867  0.83168633  0.42851333  1
  O  O77  1  0.84228867  0.49859933  0.40412833  1
  O  O78  1  0.82178767  0.99010133  0.42851333  1
  O  O79  1  0.52489567  0.87297933  0.47826533  1
  O  O80  1  0.65631067  0.15771133  0.40412833  1
  O  O81  1  0.20505300  0.19259900  0.68789200  1
  O  O82  1  0.98754600  0.79494700  0.68789200  1
  O  O83  1  0.80740100  0.01245400  0.68789200  1
  O  O84  1  0.85948067  0.32233333  0.64557033  1
  O  O85  1  0.67766667  0.53714733  0.64557033  1
  O  O86  1  0.46285267  0.14051933  0.64557033  1
  O  O87  1  0.01151033  0.17574267  0.92882967  1
  O  O88  1  0.13495733  0.45933167  0.85420467  1
  O  O89  1  0.84259267  0.34000033  0.90615333  1
  O  O90  1  0.82425733  0.83576767  0.92882967  1
  O  O91  1  0.65999967  0.50259233  0.90615333  1
  O  O92  1  0.01475033  0.80843767  0.81159867  1
  O  O93  1  0.49740767  0.15740733  0.90615333  1
  O  O94  1  0.16806733  0.67702267  0.73746167  1
  O  O95  1  0.79368733  0.98524967  0.81159867  1
  O  O96  1  0.54066833  0.67562567  0.85420467  1
  O  O97  1  0.16423233  0.98848967  0.92882967  1
  O  O98  1  0.83498033  0.51154567  0.76184667  1
  O  O99  1  0.32437433  0.86504267  0.85420467  1
  O  O100  1  0.67656533  0.16501967  0.76184667  1
  O  O101  1  0.50895533  0.83193267  0.73746167  1
  O  O102  1  0.48845433  0.32343467  0.76184667  1
  O  O103  1  0.19156233  0.20631267  0.81159867  1
  O  O104  1  0.32297733  0.49104467  0.73746167  1
  O  O105  1  0.87171967  0.52593233  0.02122533  1
  O  O106  1  0.65421267  0.12828033  0.02122533  1
  O  O107  1  0.47406767  0.34578733  0.02122533  1
