# generated using pymatgen
data_Mn6O5F7
_symmetry_space_group_name_H-M   'P 1'
_cell_length_a   6.45315600
_cell_length_b   6.97646200
_cell_length_c   9.45460734
_cell_angle_alpha   90.00000000
_cell_angle_beta   90.03045802
_cell_angle_gamma   90.00000000
_symmetry_Int_Tables_number   1
_chemical_formula_structural   Mn6O5F7
_chemical_formula_sum   'Mn12 O10 F14'
_cell_volume   425.64823048
_cell_formula_units_Z   2
loop_
 _symmetry_equiv_pos_site_id
 _symmetry_equiv_pos_as_xyz
  1  'x, y, z'
loop_
 _atom_site_type_symbol
 _atom_site_label
 _atom_site_symmetry_multiplicity
 _atom_site_fract_x
 _atom_site_fract_y
 _atom_site_fract_z
 _atom_site_occupancy
  Mn  Mn0  1  0.50000000  0.50291400  0.00000000  1
  Mn  Mn1  1  0.97329250  0.00896550  0.65971100  1
  Mn  Mn2  1  0.02670750  0.00896550  0.34028900  1
  Mn  Mn3  1  0.49585300  0.00364100  0.15892300  1
  Mn  Mn4  1  0.50414700  0.00364100  0.84107700  1
  Mn  Mn5  1  0.50000000  0.97744400  0.50000000  1
  Mn  Mn6  1  0.00000000  0.00291400  0.00000000  1
  Mn  Mn7  1  0.47329250  0.50896550  0.65971100  1
  Mn  Mn8  1  0.52670750  0.50896550  0.34028900  1
  Mn  Mn9  1  0.99585300  0.50364100  0.15892300  1
  Mn  Mn10  1  0.00414700  0.50364100  0.84107700  1
  Mn  Mn11  1  0.00000000  0.47744400  0.50000000  1
  O  O12  1  0.50000000  0.68281900  0.50000000  1
  O  O13  1  0.30392550  0.00485450  0.99837100  1
  O  O14  1  0.31962050  0.99629950  0.33230000  1
  O  O15  1  0.69607450  0.00485450  0.00162900  1
  O  O16  1  0.68037950  0.99629950  0.66770000  1
  O  O17  1  0.00000000  0.18281900  0.50000000  1
  O  O18  1  0.80392550  0.50485450  0.99837100  1
  O  O19  1  0.81962050  0.49629950  0.33230000  1
  O  O20  1  0.19607450  0.50485450  0.00162900  1
  O  O21  1  0.18037950  0.49629950  0.66770000  1
  F  F22  1  0.49453000  0.69663900  0.83464200  1
  F  F23  1  0.50547000  0.69663900  0.16535800  1
  F  F24  1  0.28547050  0.99886550  0.67803200  1
  F  F25  1  0.71452950  0.99886550  0.32196800  1
  F  F26  1  0.50000000  0.28130200  0.50000000  1
  F  F27  1  0.49145600  0.31849600  0.82290600  1
  F  F28  1  0.50854400  0.31849600  0.17709400  1
  F  F29  1  0.99453000  0.19663900  0.83464200  1
  F  F30  1  0.00547000  0.19663900  0.16535800  1
  F  F31  1  0.78547050  0.49886550  0.67803200  1
  F  F32  1  0.21452950  0.49886550  0.32196800  1
  F  F33  1  0.00000000  0.78130200  0.50000000  1
  F  F34  1  0.99145600  0.81849600  0.82290600  1
  F  F35  1  0.00854400  0.81849600  0.17709400  1
