# generated using pymatgen
data_FeOF
_symmetry_space_group_name_H-M   'P 1'
_cell_length_a   14.16493400
_cell_length_b   3.11859500
_cell_length_c   14.24144402
_cell_angle_alpha   90.00000000
_cell_angle_beta   90.06447537
_cell_angle_gamma   90.00000000
_symmetry_Int_Tables_number   1
_chemical_formula_structural   FeOF
_chemical_formula_sum   'Fe18 O18 F18'
_cell_volume   629.11100972
_cell_formula_units_Z   18
loop_
 _symmetry_equiv_pos_site_id
 _symmetry_equiv_pos_as_xyz
  1  'x, y, z'
loop_
 _atom_site_type_symbol
 _atom_site_label
 _atom_site_symmetry_multiplicity
 _atom_site_fract_x
 _atom_site_fract_y
 _atom_site_fract_z
 _atom_site_occupancy
  Fe  Fe0  1  0.01297800  0.00000000  0.00361200  1
  Fe  Fe1  1  0.01219200  0.00000000  0.66767600  1
  Fe  Fe2  1  0.00650700  0.00000000  0.34131800  1
  Fe  Fe3  1  0.15174300  0.50000000  0.83456800  1
  Fe  Fe4  1  0.15237200  0.50000000  0.50134700  1
  Fe  Fe5  1  0.14837800  0.50000000  0.17478500  1
  Fe  Fe6  1  0.33977400  0.00000000  0.00848600  1
  Fe  Fe7  1  0.34569900  0.00000000  0.66927900  1
  Fe  Fe8  1  0.34507600  0.00000000  0.33612500  1
  Fe  Fe9  1  0.48710700  0.50000000  0.50213700  1
  Fe  Fe10  1  0.50499300  0.50000000  0.81740300  1
  Fe  Fe11  1  0.48816200  0.50000000  0.17023000  1
  Fe  Fe12  1  0.68013800  0.00000000  0.00262000  1
  Fe  Fe13  1  0.67302900  0.00000000  0.67545100  1
  Fe  Fe14  1  0.68076600  0.00000000  0.33691900  1
  Fe  Fe15  1  0.82080500  0.50000000  0.83496000  1
  Fe  Fe16  1  0.83902900  0.50000000  0.48453700  1
  Fe  Fe17  1  0.82058200  0.50000000  0.16981500  1
  O  O18  1  0.06423400  0.50000000  0.73042200  1
  O  O19  1  0.06689300  0.50000000  0.39700400  1
  O  O20  1  0.06396500  0.50000000  0.06622600  1
  O  O21  1  0.10293000  0.00000000  0.89916600  1
  O  O22  1  0.10074200  0.00000000  0.56426400  1
  O  O23  1  0.09901100  0.00000000  0.23457000  1
  O  O24  1  0.39510900  0.50000000  0.73483700  1
  O  O25  1  0.39793800  0.50000000  0.39776100  1
  O  O26  1  0.39837100  0.50000000  0.06268300  1
  O  O27  1  0.43578900  0.00000000  0.56585400  1
  O  O28  1  0.43365600  0.00000000  0.23002700  1
  O  O29  1  0.56725800  0.00000000  0.76552800  1
  O  O30  1  0.73619100  0.50000000  0.72636900  1
  O  O31  1  0.72932800  0.50000000  0.40061400  1
  O  O32  1  0.73137600  0.50000000  0.06445200  1
  O  O33  1  0.76707200  0.00000000  0.89654300  1
  O  O34  1  0.76755400  0.00000000  0.23138100  1
  O  O35  1  0.90005400  0.00000000  0.43241600  1
  F  F36  1  0.23142300  0.00000000  0.76772100  1
  F  F37  1  0.23250300  0.00000000  0.43310100  1
  F  F38  1  0.23156400  0.00000000  0.10183400  1
  F  F39  1  0.27022500  0.50000000  0.93445200  1
  F  F40  1  0.26725300  0.50000000  0.26746900  1
  F  F41  1  0.26760300  0.50000000  0.60077400  1
  F  F42  1  0.43434000  0.00000000  0.89831500  1
  F  F43  1  0.56415100  0.00000000  0.43297100  1
  F  F44  1  0.56485700  0.00000000  0.10096200  1
  F  F45  1  0.59685300  0.50000000  0.93676400  1
  F  F46  1  0.60522200  0.50000000  0.59576200  1
  F  F47  1  0.60038300  0.50000000  0.26696100  1
  F  F48  1  0.76989600  0.00000000  0.56327700  1
  F  F49  1  0.89958100  0.00000000  0.76839100  1
  F  F50  1  0.89802000  0.00000000  0.09940400  1
  F  F51  1  0.93454000  0.50000000  0.93381900  1
  F  F52  1  0.93134700  0.50000000  0.60366300  1
  F  F53  1  0.93343900  0.50000000  0.26297800  1
