# generated using pymatgen
data_Mn3VSb2(PO4)6
_symmetry_space_group_name_H-M   'P 1'
_cell_length_a   8.75118261
_cell_length_b   8.75118261
_cell_length_c   22.01543958
_cell_angle_alpha   90.00000000
_cell_angle_beta   90.00000000
_cell_angle_gamma   120.00000000
_symmetry_Int_Tables_number   1
_chemical_formula_structural   Mn3VSb2(PO4)6
_chemical_formula_sum   'Mn9 V3 Sb6 P18 O72'
_cell_volume   1460.12987141
_cell_formula_units_Z   3
loop_
 _symmetry_equiv_pos_site_id
 _symmetry_equiv_pos_as_xyz
  1  'x, y, z'
loop_
 _atom_site_type_symbol
 _atom_site_label
 _atom_site_symmetry_multiplicity
 _atom_site_fract_x
 _atom_site_fract_y
 _atom_site_fract_z
 _atom_site_occupancy
  Mn  Mn0  1  0.33333333  0.66666667  0.01592900  1
  Mn  Mn1  1  0.00000000  0.00000000  0.15446467  1
  Mn  Mn2  1  0.33333333  0.66666667  0.31353867  1
  Mn  Mn3  1  0.00000000  0.00000000  0.34926233  1
  Mn  Mn4  1  0.66666667  0.33333333  0.48779800  1
  Mn  Mn5  1  0.00000000  0.00000000  0.64687200  1
  Mn  Mn6  1  0.66666667  0.33333333  0.68259567  1
  Mn  Mn7  1  0.33333333  0.66666667  0.82113133  1
  Mn  Mn8  1  0.66666667  0.33333333  0.98020533  1
  V  V9  1  0.66666667  0.33333333  0.18788533  1
  V  V10  1  0.33333333  0.66666667  0.52121867  1
  V  V11  1  0.00000000  0.00000000  0.85455200  1
  Sb  Sb12  1  0.00000000  0.00000000  0.01311967  1
  Sb  Sb13  1  0.33333333  0.66666667  0.16605600  1
  Sb  Sb14  1  0.66666667  0.33333333  0.34645300  1
  Sb  Sb15  1  0.00000000  0.00000000  0.49938933  1
  Sb  Sb16  1  0.33333333  0.66666667  0.67978633  1
  Sb  Sb17  1  0.66666667  0.33333333  0.83272267  1
  P  P18  1  0.37946533  0.33267967  0.08345967  1
  P  P19  1  0.66732033  0.04678567  0.08345967  1
  P  P20  1  0.95321433  0.62053467  0.08345967  1
  P  P21  1  0.70241333  0.70065467  0.24896967  1
  P  P22  1  0.99824133  0.29758667  0.24896967  1
  P  P23  1  0.29934533  0.00175867  0.24896967  1
  P  P24  1  0.04613200  0.66601300  0.41679300  1
  P  P25  1  0.33398700  0.38011900  0.41679300  1
  P  P26  1  0.61988100  0.95386800  0.41679300  1
  P  P27  1  0.36908000  0.03398800  0.58230300  1
  P  P28  1  0.66490800  0.63092000  0.58230300  1
  P  P29  1  0.96601200  0.33509200  0.58230300  1
  P  P30  1  0.71279867  0.99934633  0.75012633  1
  P  P31  1  0.00065367  0.71345233  0.75012633  1
  P  P32  1  0.28654767  0.28720133  0.75012633  1
  P  P33  1  0.03574667  0.36732133  0.91563633  1
  P  P34  1  0.33157467  0.96425333  0.91563633  1
  P  P35  1  0.63267867  0.66842533  0.91563633  1
  O  O36  1  0.66736667  0.13522633  0.02428733  1
  O  O37  1  0.86477367  0.53214033  0.02428733  1
  O  O38  1  0.46785967  0.33263333  0.02428733  1
  O  O39  1  0.18643667  0.16295233  0.08084733  1
  O  O40  1  0.47354700  0.32089200  0.14102400  1
  O  O41  1  0.35757833  0.49756067  0.09029967  1
  O  O42  1  0.83704767  0.02348433  0.08084733  1
  O  O43  1  0.50243933  0.86001767  0.09029967  1
  O  O44  1  0.78741533  0.80372767  0.19078967  1
  O  O45  1  0.13998233  0.64242167  0.09029967  1
  O  O46  1  0.67654533  0.50946967  0.24546867  1
  O  O47  1  0.01631233  0.21258467  0.19078967  1
  O  O48  1  0.67910800  0.15265500  0.14102400  1
  O  O49  1  0.97651567  0.81356333  0.08084733  1
  O  O50  1  0.51060033  0.67425267  0.24771167  1
  O  O51  1  0.84734500  0.52645300  0.14102400  1
  O  O52  1  0.16365233  0.48939967  0.24771167  1
  O  O53  1  0.83292433  0.32345467  0.24546867  1
  O  O54  1  0.32574733  0.83634767  0.24771167  1
  O  O55  1  0.19627233  0.98368767  0.19078967  1
  O  O56  1  0.49053033  0.16707567  0.24546867  1
  O  O57  1  0.21965567  0.01717533  0.30792233  1
  O  O58  1  0.79751967  0.78034433  0.30792233  1
  O  O59  1  0.98282467  0.20248033  0.30792233  1
  O  O60  1  0.33403333  0.46855967  0.35762067  1
  O  O61  1  0.53144033  0.86547367  0.35762067  1
  O  O62  1  0.13452633  0.66596667  0.35762067  1
  O  O63  1  0.85310333  0.49628567  0.41418067  1
  O  O64  1  0.14021367  0.65422533  0.47435733  1
  O  O65  1  0.02424500  0.83089400  0.42363300  1
  O  O66  1  0.50371433  0.35681767  0.41418067  1
  O  O67  1  0.16910600  0.19335100  0.42363300  1
  O  O68  1  0.45408200  0.13706100  0.52412300  1
  O  O69  1  0.80664900  0.97575500  0.42363300  1
  O  O70  1  0.34321200  0.84280300  0.57880200  1
  O  O71  1  0.68297900  0.54591800  0.52412300  1
  O  O72  1  0.34577467  0.48598833  0.47435733  1
  O  O73  1  0.64318233  0.14689667  0.41418067  1
  O  O74  1  0.17726700  0.00758600  0.58104500  1
  O  O75  1  0.51401167  0.85978633  0.47435733  1
  O  O76  1  0.83031900  0.82273300  0.58104500  1
  O  O77  1  0.49959100  0.65678800  0.57880200  1
  O  O78  1  0.99241400  0.16968100  0.58104500  1
  O  O79  1  0.86293900  0.31702100  0.52412300  1
  O  O80  1  0.15719700  0.50040900  0.57880200  1
  O  O81  1  0.88632233  0.35050867  0.64125567  1
  O  O82  1  0.46418633  0.11367767  0.64125567  1
  O  O83  1  0.64949133  0.53581367  0.64125567  1
  O  O84  1  0.00070000  0.80189300  0.69095400  1
  O  O85  1  0.19810700  0.19880700  0.69095400  1
  O  O86  1  0.80119300  0.99930000  0.69095400  1
  O  O87  1  0.51977000  0.82961900  0.74751400  1
  O  O88  1  0.80688033  0.98755867  0.80769067  1
  O  O89  1  0.69091167  0.16422733  0.75696633  1
  O  O90  1  0.17038100  0.69015100  0.74751400  1
  O  O91  1  0.83577267  0.52668433  0.75696633  1
  O  O92  1  0.12074867  0.47039433  0.85745633  1
  O  O93  1  0.47331567  0.30908833  0.75696633  1
  O  O94  1  0.00987867  0.17613633  0.91213533  1
  O  O95  1  0.34964567  0.87925133  0.85745633  1
  O  O96  1  0.01244133  0.81932167  0.80769067  1
  O  O97  1  0.30984900  0.48023000  0.74751400  1
  O  O98  1  0.84393367  0.34091933  0.91437833  1
  O  O99  1  0.18067833  0.19311967  0.80769067  1
  O  O100  1  0.49698567  0.15606633  0.91437833  1
  O  O101  1  0.16625767  0.99012133  0.91213533  1
  O  O102  1  0.65908067  0.50301433  0.91437833  1
  O  O103  1  0.52960567  0.65035433  0.85745633  1
  O  O104  1  0.82386367  0.83374233  0.91213533  1
  O  O105  1  0.55298900  0.68384200  0.97458900  1
  O  O106  1  0.13085300  0.44701100  0.97458900  1
  O  O107  1  0.31615800  0.86914700  0.97458900  1
