# generated using pymatgen
data_VCr2O6
_symmetry_space_group_name_H-M   'P 1'
_cell_length_a   4.44210400
_cell_length_b   4.91906700
_cell_length_c   16.65831800
_cell_angle_alpha   90.00000000
_cell_angle_beta   90.00000000
_cell_angle_gamma   90.00000000
_symmetry_Int_Tables_number   1
_chemical_formula_structural   VCr2O6
_chemical_formula_sum   'V4 Cr8 O24'
_cell_volume   364.00102660
_cell_formula_units_Z   4
loop_
 _symmetry_equiv_pos_site_id
 _symmetry_equiv_pos_as_xyz
  1  'x, y, z'
loop_
 _atom_site_type_symbol
 _atom_site_label
 _atom_site_symmetry_multiplicity
 _atom_site_fract_x
 _atom_site_fract_y
 _atom_site_fract_z
 _atom_site_occupancy
  V  V0  1  0.00000000  0.25000000  0.38769500  1
  V  V1  1  0.00000000  0.75000000  0.61230500  1
  V  V2  1  0.50000000  0.75000000  0.11230500  1
  V  V3  1  0.50000000  0.25000000  0.88769500  1
  Cr  Cr4  1  0.00000000  0.25000000  0.05047900  1
  Cr  Cr5  1  0.00000000  0.75000000  0.28237800  1
  Cr  Cr6  1  0.00000000  0.25000000  0.71762200  1
  Cr  Cr7  1  0.00000000  0.75000000  0.94952100  1
  Cr  Cr8  1  0.50000000  0.25000000  0.21762200  1
  Cr  Cr9  1  0.50000000  0.25000000  0.55047900  1
  Cr  Cr10  1  0.50000000  0.75000000  0.78237800  1
  Cr  Cr11  1  0.50000000  0.75000000  0.44952100  1
  O  O12  1  0.23957300  0.59195350  0.04144600  1
  O  O13  1  0.23957300  0.09195350  0.95855400  1
  O  O14  1  0.27491600  0.58735750  0.20576900  1
  O  O15  1  0.27491600  0.08735750  0.79423100  1
  O  O16  1  0.22506500  0.56986850  0.37154400  1
  O  O17  1  0.22506500  0.06986850  0.62845600  1
  O  O18  1  0.27493500  0.06986850  0.12845600  1
  O  O19  1  0.27493500  0.56986850  0.87154400  1
  O  O20  1  0.22508400  0.08735750  0.29423100  1
  O  O21  1  0.22508400  0.58735750  0.70576900  1
  O  O22  1  0.26042700  0.09195350  0.45855400  1
  O  O23  1  0.26042700  0.59195350  0.54144600  1
  O  O24  1  0.73957300  0.40804650  0.45855400  1
  O  O25  1  0.73957300  0.90804650  0.54144600  1
  O  O26  1  0.77491600  0.41264250  0.29423100  1
  O  O27  1  0.77491600  0.91264250  0.70576900  1
  O  O28  1  0.72506500  0.43013150  0.12845600  1
  O  O29  1  0.72506500  0.93013150  0.87154400  1
  O  O30  1  0.77493500  0.93013150  0.37154400  1
  O  O31  1  0.77493500  0.43013150  0.62845600  1
  O  O32  1  0.72508400  0.91264250  0.20576900  1
  O  O33  1  0.72508400  0.41264250  0.79423100  1
  O  O34  1  0.76042700  0.90804650  0.04144600  1
  O  O35  1  0.76042700  0.40804650  0.95855400  1
