# generated using pymatgen
data_Cr4CuO12
_symmetry_space_group_name_H-M   'P 1'
_cell_length_a   9.97448905
_cell_length_b   9.04160968
_cell_length_c   5.75965528
_cell_angle_alpha   90.00000000
_cell_angle_beta   109.58103840
_cell_angle_gamma   90.00000000
_symmetry_Int_Tables_number   1
_chemical_formula_structural   Cr4CuO12
_chemical_formula_sum   'Cr8 Cu2 O24'
_cell_volume   489.39716094
_cell_formula_units_Z   2
loop_
 _symmetry_equiv_pos_site_id
 _symmetry_equiv_pos_as_xyz
  1  'x, y, z'
loop_
 _atom_site_type_symbol
 _atom_site_label
 _atom_site_symmetry_multiplicity
 _atom_site_fract_x
 _atom_site_fract_y
 _atom_site_fract_z
 _atom_site_occupancy
  Cr  Cr0  1  0.20290200  0.59215300  0.48271200  1
  Cr  Cr1  1  0.20600750  0.40462050  0.97884700  1
  Cr  Cr2  1  0.79709800  0.59215300  0.51728800  1
  Cr  Cr3  1  0.79399250  0.40462050  0.02115300  1
  Cr  Cr4  1  0.70290200  0.09215300  0.48271200  1
  Cr  Cr5  1  0.70600750  0.90462050  0.97884700  1
  Cr  Cr6  1  0.29709800  0.09215300  0.51728800  1
  Cr  Cr7  1  0.29399250  0.90462050  0.02115300  1
  Cu  Cu8  1  0.00000000  0.08855800  0.00000000  1
  Cu  Cu9  1  0.50000000  0.58855800  0.00000000  1
  O  O10  1  0.37448800  0.59515800  0.60986700  1
  O  O11  1  0.14524750  0.75823850  0.44180600  1
  O  O12  1  0.37869100  0.41735800  0.06108100  1
  O  O13  1  0.13666450  0.50529950  0.69262500  1
  O  O14  1  0.85475250  0.75823850  0.55819400  1
  O  O15  1  0.14622300  0.50012500  0.20019500  1
  O  O16  1  0.86333550  0.50529950  0.30737500  1
  O  O17  1  0.14444800  0.23372300  0.94984300  1
  O  O18  1  0.85377700  0.50012500  0.79980500  1
  O  O19  1  0.62551200  0.59515800  0.39013300  1
  O  O20  1  0.85555200  0.23372300  0.05015700  1
  O  O21  1  0.62130900  0.41735800  0.93891900  1
  O  O22  1  0.87448800  0.09515800  0.60986700  1
  O  O23  1  0.64524750  0.25823850  0.44180600  1
  O  O24  1  0.87869100  0.91735800  0.06108100  1
  O  O25  1  0.63666450  0.00529950  0.69262500  1
  O  O26  1  0.35475250  0.25823850  0.55819400  1
  O  O27  1  0.64622300  0.00012500  0.20019500  1
  O  O28  1  0.36333550  0.00529950  0.30737500  1
  O  O29  1  0.64444800  0.73372300  0.94984300  1
  O  O30  1  0.35377700  0.00012500  0.79980500  1
  O  O31  1  0.12551200  0.09515800  0.39013300  1
  O  O32  1  0.35555200  0.73372300  0.05015700  1
  O  O33  1  0.12130900  0.91735800  0.93891900  1
