# generated using pymatgen
data_Li5Mn3V2O10
_symmetry_space_group_name_H-M   'P 1'
_cell_length_a   5.19946747
_cell_length_b   5.24829825
_cell_length_c   7.88096866
_cell_angle_alpha   107.73210403
_cell_angle_beta   100.54401837
_cell_angle_gamma   101.81473482
_symmetry_Int_Tables_number   1
_chemical_formula_structural   Li5Mn3V2O10
_chemical_formula_sum   'Li5 Mn3 V2 O10'
_cell_volume   193.43441499
_cell_formula_units_Z   1
loop_
 _symmetry_equiv_pos_site_id
 _symmetry_equiv_pos_as_xyz
  1  'x, y, z'
loop_
 _atom_site_type_symbol
 _atom_site_label
 _atom_site_symmetry_multiplicity
 _atom_site_fract_x
 _atom_site_fract_y
 _atom_site_fract_z
 _atom_site_occupancy
  Li  Li0  1  0.50000000  0.00000000  0.50000000  1
  Li  Li1  1  0.20088200  0.50325600  0.39748000  1
  Li  Li2  1  0.79911800  0.49674400  0.60252000  1
  Li  Li3  1  0.38105200  0.51415400  0.77696900  1
  Li  Li4  1  0.61894800  0.48584600  0.22303100  1
  Mn  Mn5  1  0.00000000  0.50000000  0.00000000  1
  Mn  Mn6  1  0.69458400  0.99089950  0.90069300  1
  Mn  Mn7  1  0.30541600  0.00910050  0.09930700  1
  V  V8  1  0.10368700  0.01771900  0.68734000  1
  V  V9  1  0.89631300  0.98228100  0.31266000  1
  O  O10  1  0.05012900  0.23791900  0.83240700  1
  O  O11  1  0.94987100  0.76208100  0.16759300  1
  O  O12  1  0.32052900  0.74895600  0.93579550  1
  O  O13  1  0.67947100  0.25104400  0.06420450  1
  O  O14  1  0.13779100  0.78663100  0.54079450  1
  O  O15  1  0.86220900  0.21336900  0.45920550  1
  O  O16  1  0.21058000  0.25629750  0.23700650  1
  O  O17  1  0.78942000  0.74370250  0.76299350  1
  O  O18  1  0.42135700  0.22894450  0.65428250  1
  O  O19  1  0.57864300  0.77105550  0.34571750  1
