# generated using pymatgen
data_Li2CoP2O7
_symmetry_space_group_name_H-M   'P 1'
_cell_length_a   5.17986588
_cell_length_b   6.26691600
_cell_length_c   8.71313589
_cell_angle_alpha   72.18479388
_cell_angle_beta   86.34731452
_cell_angle_gamma   83.51094980
_symmetry_Int_Tables_number   1
_chemical_formula_structural   Li2CoP2O7
_chemical_formula_sum   'Li4 Co2 P4 O14'
_cell_volume   267.42900426
_cell_formula_units_Z   2
loop_
 _symmetry_equiv_pos_site_id
 _symmetry_equiv_pos_as_xyz
  1  'x, y, z'
loop_
 _atom_site_type_symbol
 _atom_site_label
 _atom_site_symmetry_multiplicity
 _atom_site_fract_x
 _atom_site_fract_y
 _atom_site_fract_z
 _atom_site_occupancy
  Li  Li0  1  0.79988850  0.21275750  0.45870800  1
  Li  Li1  1  0.20011150  0.78724250  0.54129200  1
  Li  Li2  1  0.69808050  0.06275600  0.83923800  1
  Li  Li3  1  0.30191950  0.93724400  0.16076200  1
  Co  Co4  1  0.76529850  0.56070800  0.74655000  1
  Co  Co5  1  0.23470150  0.43929200  0.25345000  1
  P  P6  1  0.78580200  0.20201850  0.13019600  1
  P  P7  1  0.21419800  0.79798150  0.86980400  1
  P  P8  1  0.71562650  0.74727600  0.35271300  1
  P  P9  1  0.28437350  0.25272400  0.64728700  1
  O  O10  1  0.93076900  0.79763500  0.82682000  1
  O  O11  1  0.06923100  0.20236500  0.17318000  1
  O  O12  1  0.89513900  0.54455250  0.33830400  1
  O  O13  1  0.10486100  0.45544750  0.66169600  1
  O  O14  1  0.73417700  0.28656900  0.95006700  1
  O  O15  1  0.26582300  0.71343100  0.04993300  1
  O  O16  1  0.79971900  0.84660250  0.47981200  1
  O  O17  1  0.20028100  0.15339750  0.52018800  1
  O  O18  1  0.73739900  0.93580850  0.17053500  1
  O  O19  1  0.26260100  0.06419150  0.82946500  1
  O  O20  1  0.57545100  0.28774150  0.63694600  1
  O  O21  1  0.42454900  0.71225850  0.36305400  1
  O  O22  1  0.59324650  0.29311950  0.23939200  1
  O  O23  1  0.40675350  0.70688050  0.76060800  1
