# generated using pymatgen
data_Li3Fe3CoO8
_symmetry_space_group_name_H-M   'P 1'
_cell_length_a   10.28212200
_cell_length_b   5.85460400
_cell_length_c   5.04062021
_cell_angle_alpha   90.00000000
_cell_angle_beta   108.53576745
_cell_angle_gamma   90.00000000
_symmetry_Int_Tables_number   1
_chemical_formula_structural   Li3Fe3CoO8
_chemical_formula_sum   'Li6 Fe6 Co2 O16'
_cell_volume   287.69348731
_cell_formula_units_Z   2
loop_
 _symmetry_equiv_pos_site_id
 _symmetry_equiv_pos_as_xyz
  1  'x, y, z'
loop_
 _atom_site_type_symbol
 _atom_site_label
 _atom_site_symmetry_multiplicity
 _atom_site_fract_x
 _atom_site_fract_y
 _atom_site_fract_z
 _atom_site_occupancy
  Li  Li0  1  0.24766300  0.00000000  0.49197700  1
  Li  Li1  1  0.25039600  0.73896800  0.99689900  1
  Li  Li2  1  0.25039600  0.26103200  0.99689900  1
  Li  Li3  1  0.74766300  0.50000000  0.49197700  1
  Li  Li4  1  0.75039600  0.23896800  0.99689900  1
  Li  Li5  1  0.75039600  0.76103200  0.99689900  1
  Fe  Fe6  1  0.49908100  0.74437600  0.50021000  1
  Fe  Fe7  1  0.49908100  0.25562400  0.50021000  1
  Fe  Fe8  1  0.00169700  0.50000000  0.00509900  1
  Fe  Fe9  1  0.99908100  0.24437600  0.50021000  1
  Fe  Fe10  1  0.99908100  0.75562400  0.50021000  1
  Fe  Fe11  1  0.50169700  0.00000000  0.00509900  1
  Co  Co12  1  0.49873500  0.50000000  0.99570800  1
  Co  Co13  1  0.99873500  0.00000000  0.99570800  1
  O  O14  1  0.39362800  0.75839300  0.77837800  1
  O  O15  1  0.39362800  0.24160700  0.77837800  1
  O  O16  1  0.38953000  0.00000000  0.25070200  1
  O  O17  1  0.39008400  0.50000000  0.24224200  1
  O  O18  1  0.11354200  0.00000000  0.74434800  1
  O  O19  1  0.10812800  0.50000000  0.76343700  1
  O  O20  1  0.10584200  0.24187800  0.22187600  1
  O  O21  1  0.10584200  0.75812200  0.22187600  1
  O  O22  1  0.89362800  0.25839300  0.77837800  1
  O  O23  1  0.89362800  0.74160700  0.77837800  1
  O  O24  1  0.88953000  0.50000000  0.25070200  1
  O  O25  1  0.89008400  0.00000000  0.24224200  1
  O  O26  1  0.61354200  0.50000000  0.74434800  1
  O  O27  1  0.60812800  0.00000000  0.76343700  1
  O  O28  1  0.60584200  0.74187800  0.22187600  1
  O  O29  1  0.60584200  0.25812200  0.22187600  1
