# generated using pymatgen
data_Na2W3O10
_symmetry_space_group_name_H-M   'P 1'
_cell_length_a   13.84106800
_cell_length_b   7.95814600
_cell_length_c   8.59650871
_cell_angle_alpha   90.00000000
_cell_angle_beta   100.91379500
_cell_angle_gamma   90.00000000
_symmetry_Int_Tables_number   1
_chemical_formula_structural   Na2W3O10
_chemical_formula_sum   'Na8 W12 O40'
_cell_volume   929.77248806
_cell_formula_units_Z   4
loop_
 _symmetry_equiv_pos_site_id
 _symmetry_equiv_pos_as_xyz
  1  'x, y, z'
loop_
 _atom_site_type_symbol
 _atom_site_label
 _atom_site_symmetry_multiplicity
 _atom_site_fract_x
 _atom_site_fract_y
 _atom_site_fract_z
 _atom_site_occupancy
  Na  Na0  1  0.82041300  0.60611200  0.84974400  1
  Na  Na1  1  0.82041300  0.39388800  0.34974400  1
  Na  Na2  1  0.67958700  0.10611200  0.65025600  1
  Na  Na3  1  0.67958700  0.89388800  0.15025600  1
  Na  Na4  1  0.32041300  0.10611200  0.84974400  1
  Na  Na5  1  0.32041300  0.89388800  0.34974400  1
  Na  Na6  1  0.17958700  0.60611200  0.65025600  1
  Na  Na7  1  0.17958700  0.39388800  0.15025600  1
  W  W8  1  0.88730000  0.08368000  0.98607000  1
  W  W9  1  0.88730000  0.91632000  0.48607000  1
  W  W10  1  0.61270000  0.58368000  0.51393000  1
  W  W11  1  0.61270000  0.41632000  0.01393000  1
  W  W12  1  0.00000000  0.30865100  0.75000000  1
  W  W13  1  0.00000000  0.69134900  0.25000000  1
  W  W14  1  0.38730000  0.58368000  0.98607000  1
  W  W15  1  0.38730000  0.41632000  0.48607000  1
  W  W16  1  0.11270000  0.08368000  0.51393000  1
  W  W17  1  0.11270000  0.91632000  0.01393000  1
  W  W18  1  0.50000000  0.80865100  0.75000000  1
  W  W19  1  0.50000000  0.19134900  0.25000000  1
  O  O20  1  0.97553500  0.09369300  0.59059100  1
  O  O21  1  0.93977300  0.44334700  0.59852600  1
  O  O22  1  0.97553500  0.90630700  0.09059100  1
  O  O23  1  0.93977300  0.55665300  0.09852600  1
  O  O24  1  0.87326900  0.25256300  0.82166500  1
  O  O25  1  0.86411150  0.80221950  0.65138400  1
  O  O26  1  0.87326900  0.74743700  0.32166500  1
  O  O27  1  0.86411150  0.19778050  0.15138400  1
  O  O28  1  0.78263900  0.95426600  0.92227700  1
  O  O29  1  0.78263900  0.04573400  0.42227700  1
  O  O30  1  0.71736100  0.45426600  0.57772300  1
  O  O31  1  0.71736100  0.54573400  0.07772300  1
  O  O32  1  0.63588850  0.30221950  0.84861600  1
  O  O33  1  0.62673100  0.75256300  0.67833500  1
  O  O34  1  0.63588850  0.69778050  0.34861600  1
  O  O35  1  0.62673100  0.24743700  0.17833500  1
  O  O36  1  0.56022700  0.94334700  0.90147400  1
  O  O37  1  0.52446500  0.59369300  0.90940900  1
  O  O38  1  0.56022700  0.05665300  0.40147400  1
  O  O39  1  0.52446500  0.40630700  0.40940900  1
  O  O40  1  0.47553500  0.59369300  0.59059100  1
  O  O41  1  0.43977300  0.94334700  0.59852600  1
  O  O42  1  0.47553500  0.40630700  0.09059100  1
  O  O43  1  0.43977300  0.05665300  0.09852600  1
  O  O44  1  0.37326900  0.75256300  0.82166500  1
  O  O45  1  0.36411150  0.30221950  0.65138400  1
  O  O46  1  0.37326900  0.24743700  0.32166500  1
  O  O47  1  0.36411150  0.69778050  0.15138400  1
  O  O48  1  0.28263900  0.45426600  0.92227700  1
  O  O49  1  0.28263900  0.54573400  0.42227700  1
  O  O50  1  0.21736100  0.95426600  0.57772300  1
  O  O51  1  0.21736100  0.04573400  0.07772300  1
  O  O52  1  0.13588850  0.80221950  0.84861600  1
  O  O53  1  0.12673100  0.25256300  0.67833500  1
  O  O54  1  0.13588850  0.19778050  0.34861600  1
  O  O55  1  0.12673100  0.74743700  0.17833500  1
  O  O56  1  0.06022700  0.44334700  0.90147400  1
  O  O57  1  0.02446500  0.09369300  0.90940900  1
  O  O58  1  0.06022700  0.55665300  0.40147400  1
  O  O59  1  0.02446500  0.90630700  0.40940900  1
