# generated using pymatgen
data_LiVNiO4
_symmetry_space_group_name_H-M   'P 1'
_cell_length_a   5.83437482
_cell_length_b   5.95080561
_cell_length_c   8.27877900
_cell_angle_alpha   90.00000000
_cell_angle_beta   90.00000000
_cell_angle_gamma   90.00000000
_symmetry_Int_Tables_number   1
_chemical_formula_structural   LiVNiO4
_chemical_formula_sum   'Li4 V4 Ni4 O16'
_cell_volume   287.43283565
_cell_formula_units_Z   4
loop_
 _symmetry_equiv_pos_site_id
 _symmetry_equiv_pos_as_xyz
  1  'x, y, z'
loop_
 _atom_site_type_symbol
 _atom_site_label
 _atom_site_symmetry_multiplicity
 _atom_site_fract_x
 _atom_site_fract_y
 _atom_site_fract_z
 _atom_site_occupancy
  Li  Li0  1  0.75000000  0.25000000  0.25000000  1
  Li  Li1  1  0.25000000  0.25000000  0.25000000  1
  Li  Li2  1  0.25000000  0.75000000  0.75000000  1
  Li  Li3  1  0.75000000  0.75000000  0.75000000  1
  V  V4  1  0.50000000  0.25000000  0.87335550  1
  V  V5  1  0.00000000  0.25000000  0.62664450  1
  V  V6  1  0.00000000  0.75000000  0.37335550  1
  V  V7  1  0.50000000  0.75000000  0.12664450  1
  Ni  Ni8  1  0.50000000  0.00000000  0.50000000  1
  Ni  Ni9  1  0.50000000  0.50000000  0.50000000  1
  Ni  Ni10  1  0.00000000  0.50000000  0.00000000  1
  Ni  Ni11  1  0.00000000  0.00000000  0.00000000  1
  O  O12  1  0.24913450  0.25000000  0.99719600  1
  O  O13  1  0.75086550  0.25000000  0.99719600  1
  O  O14  1  0.74913450  0.25000000  0.50280400  1
  O  O15  1  0.25086550  0.25000000  0.50280400  1
  O  O16  1  0.50000000  0.51299600  0.24794000  1
  O  O17  1  0.50000000  0.98700400  0.24794000  1
  O  O18  1  0.00000000  0.51299600  0.25206000  1
  O  O19  1  0.00000000  0.98700400  0.25206000  1
  O  O20  1  0.74913450  0.75000000  0.49719600  1
  O  O21  1  0.25086550  0.75000000  0.49719600  1
  O  O22  1  0.24913450  0.75000000  0.00280400  1
  O  O23  1  0.75086550  0.75000000  0.00280400  1
  O  O24  1  0.00000000  0.01299600  0.74794000  1
  O  O25  1  0.00000000  0.48700400  0.74794000  1
  O  O26  1  0.50000000  0.01299600  0.75206000  1
  O  O27  1  0.50000000  0.48700400  0.75206000  1
