# generated using pymatgen
data_Al2CuO4
_symmetry_space_group_name_H-M   'P 1'
_cell_length_a   5.58745600
_cell_length_b   5.67720600
_cell_length_c   8.49370800
_cell_angle_alpha   90.00000000
_cell_angle_beta   90.00000000
_cell_angle_gamma   90.00000000
_symmetry_Int_Tables_number   1
_chemical_formula_structural   Al2CuO4
_chemical_formula_sum   'Al8 Cu4 O16'
_cell_volume   269.43008978
_cell_formula_units_Z   4
loop_
 _symmetry_equiv_pos_site_id
 _symmetry_equiv_pos_as_xyz
  1  'x, y, z'
loop_
 _atom_site_type_symbol
 _atom_site_label
 _atom_site_symmetry_multiplicity
 _atom_site_fract_x
 _atom_site_fract_y
 _atom_site_fract_z
 _atom_site_occupancy
  Al  Al0  1  0.00000000  0.25000000  0.86217100  1
  Al  Al1  1  0.50000000  0.25000000  0.63782900  1
  Al  Al2  1  0.50000000  0.50000000  0.00000000  1
  Al  Al3  1  0.50000000  0.00000000  0.00000000  1
  Al  Al4  1  0.50000000  0.75000000  0.36217100  1
  Al  Al5  1  0.00000000  0.75000000  0.13782900  1
  Al  Al6  1  0.00000000  0.00000000  0.50000000  1
  Al  Al7  1  0.00000000  0.50000000  0.50000000  1
  Cu  Cu8  1  0.25000000  0.75000000  0.75000000  1
  Cu  Cu9  1  0.75000000  0.75000000  0.75000000  1
  Cu  Cu10  1  0.75000000  0.25000000  0.25000000  1
  Cu  Cu11  1  0.25000000  0.25000000  0.25000000  1
  O  O12  1  0.50000000  0.50341100  0.76918400  1
  O  O13  1  0.50000000  0.99658900  0.76918400  1
  O  O14  1  0.00000000  0.50341100  0.73081600  1
  O  O15  1  0.76590300  0.25000000  0.51653300  1
  O  O16  1  0.23409700  0.25000000  0.51653300  1
  O  O17  1  0.00000000  0.99658900  0.73081600  1
  O  O18  1  0.26590300  0.25000000  0.98346700  1
  O  O19  1  0.73409700  0.25000000  0.98346700  1
  O  O20  1  0.00000000  0.00341100  0.26918400  1
  O  O21  1  0.00000000  0.49658900  0.26918400  1
  O  O22  1  0.50000000  0.00341100  0.23081600  1
  O  O23  1  0.26590300  0.75000000  0.01653300  1
  O  O24  1  0.73409700  0.75000000  0.01653300  1
  O  O25  1  0.50000000  0.49658900  0.23081600  1
  O  O26  1  0.76590300  0.75000000  0.48346700  1
  O  O27  1  0.23409700  0.75000000  0.48346700  1
