# generated using pymatgen
data_Cr3NiTe2(PO4)6
_symmetry_space_group_name_H-M   'P 1'
_cell_length_a   8.62855167
_cell_length_b   8.62855167
_cell_length_c   21.84984419
_cell_angle_alpha   90.00000000
_cell_angle_beta   90.00000000
_cell_angle_gamma   120.00000000
_symmetry_Int_Tables_number   1
_chemical_formula_structural   Cr3NiTe2(PO4)6
_chemical_formula_sum   'Cr9 Ni3 Te6 P18 O72'
_cell_volume   1408.81765032
_cell_formula_units_Z   3
loop_
 _symmetry_equiv_pos_site_id
 _symmetry_equiv_pos_as_xyz
  1  'x, y, z'
loop_
 _atom_site_type_symbol
 _atom_site_label
 _atom_site_symmetry_multiplicity
 _atom_site_fract_x
 _atom_site_fract_y
 _atom_site_fract_z
 _atom_site_occupancy
  Cr  Cr0  1  0.66666667  0.33333333  0.18960033  1
  Cr  Cr1  1  0.33333333  0.66666667  0.31297467  1
  Cr  Cr2  1  0.33333333  0.66666667  0.01939967  1
  Cr  Cr3  1  0.33333333  0.66666667  0.52293367  1
  Cr  Cr4  1  0.00000000  0.00000000  0.64630800  1
  Cr  Cr5  1  0.00000000  0.00000000  0.35273300  1
  Cr  Cr6  1  0.00000000  0.00000000  0.85626700  1
  Cr  Cr7  1  0.66666667  0.33333333  0.97964133  1
  Cr  Cr8  1  0.66666667  0.33333333  0.68606633  1
  Ni  Ni9  1  0.00000000  0.00000000  0.15314300  1
  Ni  Ni10  1  0.66666667  0.33333333  0.48647633  1
  Ni  Ni11  1  0.33333333  0.66666667  0.81980967  1
  Te  Te12  1  0.00000000  0.00000000  0.01252900  1
  Te  Te13  1  0.33333333  0.66666667  0.17073567  1
  Te  Te14  1  0.66666667  0.33333333  0.34586233  1
  Te  Te15  1  0.00000000  0.00000000  0.50406900  1
  Te  Te16  1  0.33333333  0.66666667  0.67919567  1
  Te  Te17  1  0.66666667  0.33333333  0.83740233  1
  P  P18  1  0.70940300  0.00119700  0.24968500  1
  P  P19  1  0.29179400  0.29059700  0.24968500  1
  P  P20  1  0.99880300  0.70820600  0.24968500  1
  P  P21  1  0.66410867  0.61886733  0.08154133  1
  P  P22  1  0.38113267  0.04524133  0.08154133  1
  P  P23  1  0.95475867  0.33589133  0.08154133  1
  P  P24  1  0.37606967  0.33453033  0.58301833  1
  P  P25  1  0.95846067  0.62393033  0.58301833  1
  P  P26  1  0.66546967  0.04153933  0.58301833  1
  P  P27  1  0.33077533  0.95220067  0.41487467  1
  P  P28  1  0.04779933  0.37857467  0.41487467  1
  P  P29  1  0.62142533  0.66922467  0.41487467  1
  P  P30  1  0.04273633  0.66786367  0.91635167  1
  P  P31  1  0.62512733  0.95726367  0.91635167  1
  P  P32  1  0.33213633  0.37487267  0.91635167  1
  P  P33  1  0.99744200  0.28553400  0.74820800  1
  P  P34  1  0.71446600  0.71190800  0.74820800  1
  P  P35  1  0.28809200  0.00255800  0.74820800  1
  O  O36  1  0.85627667  0.32156733  0.02290233  1
  O  O37  1  0.67843267  0.53470933  0.02290233  1
  O  O38  1  0.68094700  0.16741800  0.25319000  1
  O  O39  1  0.46529067  0.14372333  0.02290233  1
  O  O40  1  0.51274967  0.82999833  0.25072333  1
  O  O41  1  0.78778433  0.98774467  0.18984967  1
  O  O42  1  0.48647100  0.31905300  0.25319000  1
  O  O43  1  0.31724867  0.48725033  0.25072333  1
  O  O44  1  0.17000167  0.68275133  0.25072333  1
  O  O45  1  0.66524700  0.53037500  0.14112200  1
  O  O46  1  0.83732733  0.81973467  0.07840567  1
  O  O47  1  0.46962500  0.13487200  0.14112200  1
  O  O48  1  0.19996033  0.21221567  0.18984967  1
  O  O49  1  0.83258200  0.51352900  0.25319000  1
  O  O50  1  0.01225533  0.80003967  0.18984967  1
  O  O51  1  0.49949800  0.64755600  0.08223900  1
  O  O52  1  0.35244400  0.85194200  0.08223900  1
  O  O53  1  0.18026533  0.01759267  0.07840567  1
  O  O54  1  0.86512800  0.33475300  0.14112200  1
  O  O55  1  0.14805800  0.50050200  0.08223900  1
  O  O56  1  0.20199433  0.19304567  0.30866067  1
  O  O57  1  0.98240733  0.16267267  0.07840567  1
  O  O58  1  0.99105133  0.79800567  0.30866067  1
  O  O59  1  0.80695433  0.00894867  0.30866067  1
  O  O60  1  0.52294333  0.65490067  0.35623567  1
  O  O61  1  0.34509933  0.86804267  0.35623567  1
  O  O62  1  0.34761367  0.50075133  0.58652333  1
  O  O63  1  0.13195733  0.47705667  0.35623567  1
  O  O64  1  0.17941633  0.16333167  0.58405667  1
  O  O65  1  0.45445100  0.32107800  0.52318300  1
  O  O66  1  0.15313767  0.65238633  0.58652333  1
  O  O67  1  0.98391533  0.82058367  0.58405667  1
  O  O68  1  0.83666833  0.01608467  0.58405667  1
  O  O69  1  0.33191367  0.86370833  0.47445533  1
  O  O70  1  0.50399400  0.15306800  0.41173900  1
  O  O71  1  0.13629167  0.46820533  0.47445533  1
  O  O72  1  0.86662700  0.54554900  0.52318300  1
  O  O73  1  0.49924867  0.84686233  0.58652333  1
  O  O74  1  0.67892200  0.13337300  0.52318300  1
  O  O75  1  0.16616467  0.98088933  0.41557233  1
  O  O76  1  0.01911067  0.18527533  0.41557233  1
  O  O77  1  0.84693200  0.35092600  0.41173900  1
  O  O78  1  0.53179467  0.66808633  0.47445533  1
  O  O79  1  0.81472467  0.83383533  0.41557233  1
  O  O80  1  0.86866100  0.52637900  0.64199400  1
  O  O81  1  0.64907400  0.49600600  0.41173900  1
  O  O82  1  0.65771800  0.13133900  0.64199400  1
  O  O83  1  0.47362100  0.34228200  0.64199400  1
  O  O84  1  0.18961000  0.98823400  0.68956900  1
  O  O85  1  0.01176600  0.20137600  0.68956900  1
  O  O86  1  0.01428033  0.83408467  0.91985667  1
  O  O87  1  0.79862400  0.81039000  0.68956900  1
  O  O88  1  0.84608300  0.49666500  0.91739000  1
  O  O89  1  0.12111767  0.65441133  0.85651633  1
  O  O90  1  0.81980433  0.98571967  0.91985667  1
  O  O91  1  0.65058200  0.15391700  0.91739000  1
  O  O92  1  0.50333500  0.34941800  0.91739000  1
  O  O93  1  0.99858033  0.19704167  0.80778867  1
  O  O94  1  0.17066067  0.48640133  0.74507233  1
  O  O95  1  0.80295833  0.80153867  0.80778867  1
  O  O96  1  0.53329367  0.87888233  0.85651633  1
  O  O97  1  0.16591533  0.18019567  0.91985667  1
  O  O98  1  0.34558867  0.46670633  0.85651633  1
  O  O99  1  0.83283133  0.31422267  0.74890567  1
  O  O100  1  0.68577733  0.51860867  0.74890567  1
  O  O101  1  0.51359867  0.68425933  0.74507233  1
  O  O102  1  0.19846133  0.00141967  0.80778867  1
  O  O103  1  0.48139133  0.16716867  0.74890567  1
  O  O104  1  0.53532767  0.85971233  0.97532733  1
  O  O105  1  0.31574067  0.82933933  0.74507233  1
  O  O106  1  0.32438467  0.46467233  0.97532733  1
  O  O107  1  0.14028767  0.67561533  0.97532733  1
