# generated using pymatgen
data_V3O5F
_symmetry_space_group_name_H-M   'P 1'
_cell_length_a   8.96350800
_cell_length_b   6.39446600
_cell_length_c   7.27418002
_cell_angle_alpha   90.00000000
_cell_angle_beta   112.48441463
_cell_angle_gamma   90.00000000
_symmetry_Int_Tables_number   1
_chemical_formula_structural   V3O5F
_chemical_formula_sum   'V12 O20 F4'
_cell_volume   385.23931133
_cell_formula_units_Z   4
loop_
 _symmetry_equiv_pos_site_id
 _symmetry_equiv_pos_as_xyz
  1  'x, y, z'
loop_
 _atom_site_type_symbol
 _atom_site_label
 _atom_site_symmetry_multiplicity
 _atom_site_fract_x
 _atom_site_fract_y
 _atom_site_fract_z
 _atom_site_occupancy
  V  V0  1  0.00000000  0.50000000  0.00000000  1
  V  V1  1  0.32838200  0.50000000  0.84246800  1
  V  V2  1  0.00000000  0.50000000  0.50000000  1
  V  V3  1  0.34578300  0.50000000  0.31560100  1
  V  V4  1  0.65421700  0.50000000  0.68439900  1
  V  V5  1  0.67161800  0.50000000  0.15753200  1
  V  V6  1  0.50000000  0.00000000  0.00000000  1
  V  V7  1  0.82838200  0.00000000  0.84246800  1
  V  V8  1  0.50000000  0.00000000  0.50000000  1
  V  V9  1  0.84578300  0.00000000  0.31560100  1
  V  V10  1  0.15421700  0.00000000  0.68439900  1
  V  V11  1  0.17161800  0.00000000  0.15753200  1
  O  O12  1  0.83204400  0.69840000  0.82854500  1
  O  O13  1  0.00000000  0.19272200  0.50000000  1
  O  O14  1  0.43593100  0.50000000  0.13106900  1
  O  O15  1  0.10064500  0.50000000  0.80406100  1
  O  O16  1  0.56406900  0.50000000  0.86893100  1
  O  O17  1  0.89935500  0.50000000  0.19593900  1
  O  O18  1  0.16795600  0.30160000  0.17145500  1
  O  O19  1  0.83204400  0.30160000  0.82854500  1
  O  O20  1  0.00000000  0.80727800  0.50000000  1
  O  O21  1  0.16795600  0.69840000  0.17145500  1
  O  O22  1  0.33204400  0.19840000  0.82854500  1
  O  O23  1  0.50000000  0.69272200  0.50000000  1
  O  O24  1  0.93593100  0.00000000  0.13106900  1
  O  O25  1  0.60064500  0.00000000  0.80406100  1
  O  O26  1  0.06406900  0.00000000  0.86893100  1
  O  O27  1  0.39935500  0.00000000  0.19593900  1
  O  O28  1  0.66795600  0.80160000  0.17145500  1
  O  O29  1  0.33204400  0.80160000  0.82854500  1
  O  O30  1  0.50000000  0.30727800  0.50000000  1
  O  O31  1  0.66795600  0.19840000  0.17145500  1
  F  F32  1  0.76230700  0.50000000  0.46638700  1
  F  F33  1  0.23769300  0.50000000  0.53361300  1
  F  F34  1  0.26230700  0.00000000  0.46638700  1
  F  F35  1  0.73769300  0.00000000  0.53361300  1
