# generated using pymatgen
data_Li3Mn(CuO3)2
_symmetry_space_group_name_H-M   'P 1'
_cell_length_a   13.07185000
_cell_length_b   2.88332200
_cell_length_c   5.85666476
_cell_angle_alpha   90.00000000
_cell_angle_beta   102.41047941
_cell_angle_gamma   90.00000000
_symmetry_Int_Tables_number   1
_chemical_formula_structural   Li3Mn(CuO3)2
_chemical_formula_sum   'Li6 Mn2 Cu4 O12'
_cell_volume   215.58173158
_cell_formula_units_Z   2
loop_
 _symmetry_equiv_pos_site_id
 _symmetry_equiv_pos_as_xyz
  1  'x, y, z'
loop_
 _atom_site_type_symbol
 _atom_site_label
 _atom_site_symmetry_multiplicity
 _atom_site_fract_x
 _atom_site_fract_y
 _atom_site_fract_z
 _atom_site_occupancy
  Li  Li0  1  0.00000000  0.50000000  0.50000000  1
  Li  Li1  1  0.83010000  0.00000000  0.16717600  1
  Li  Li2  1  0.66990000  0.50000000  0.83282400  1
  Li  Li3  1  0.50000000  0.00000000  0.50000000  1
  Li  Li4  1  0.33010000  0.50000000  0.16717600  1
  Li  Li5  1  0.16990000  0.00000000  0.83282400  1
  Mn  Mn6  1  0.00000000  0.50000000  0.00000000  1
  Mn  Mn7  1  0.50000000  0.00000000  0.00000000  1
  Cu  Cu8  1  0.82922800  0.00000000  0.65794600  1
  Cu  Cu9  1  0.67077200  0.50000000  0.34205400  1
  Cu  Cu10  1  0.32922800  0.50000000  0.65794600  1
  Cu  Cu11  1  0.17077200  0.00000000  0.34205400  1
  O  O12  1  0.84606600  0.50000000  0.90818900  1
  O  O13  1  0.66544700  0.00000000  0.57221300  1
  O  O14  1  0.65393400  0.00000000  0.09181100  1
  O  O15  1  0.99294300  0.00000000  0.21770000  1
  O  O16  1  0.50705700  0.50000000  0.78230000  1
  O  O17  1  0.83455300  0.50000000  0.42778700  1
  O  O18  1  0.34606600  0.00000000  0.90818900  1
  O  O19  1  0.16544700  0.50000000  0.57221300  1
  O  O20  1  0.15393400  0.50000000  0.09181100  1
  O  O21  1  0.49294300  0.50000000  0.21770000  1
  O  O22  1  0.00705700  0.00000000  0.78230000  1
  O  O23  1  0.33455300  0.00000000  0.42778700  1
