# generated using pymatgen
data_Na2TiCr(PO4)3
_symmetry_space_group_name_H-M   'P 1'
_cell_length_a   15.04812600
_cell_length_b   8.70997600
_cell_length_c   8.87236188
_cell_angle_alpha   90.00000000
_cell_angle_beta   124.40848670
_cell_angle_gamma   90.00000000
_symmetry_Int_Tables_number   1
_chemical_formula_structural   Na2TiCr(PO4)3
_chemical_formula_sum   'Na8 Ti4 Cr4 P12 O48'
_cell_volume   959.41888581
_cell_formula_units_Z   4
loop_
 _symmetry_equiv_pos_site_id
 _symmetry_equiv_pos_as_xyz
  1  'x, y, z'
loop_
 _atom_site_type_symbol
 _atom_site_label
 _atom_site_symmetry_multiplicity
 _atom_site_fract_x
 _atom_site_fract_y
 _atom_site_fract_z
 _atom_site_occupancy
  Na  Na0  1  0.25251200  0.24750600  0.24747700  1
  Na  Na1  1  0.74748800  0.24750600  0.75252300  1
  Na  Na2  1  0.18348550  0.06768350  0.50030100  1
  Na  Na3  1  0.81651450  0.06768350  0.49969900  1
  Na  Na4  1  0.75251200  0.74750600  0.24747700  1
  Na  Na5  1  0.24748800  0.74750600  0.75252300  1
  Na  Na6  1  0.68348550  0.56768350  0.50030100  1
  Na  Na7  1  0.31651450  0.56768350  0.49969900  1
  Ti  Ti8  1  0.60769950  0.75102350  0.82123700  1
  Ti  Ti9  1  0.39230050  0.75102350  0.17876300  1
  Ti  Ti10  1  0.10769950  0.25102350  0.82123700  1
  Ti  Ti11  1  0.89230050  0.25102350  0.17876300  1
  Cr  Cr12  1  0.60095750  0.24866850  0.30802500  1
  Cr  Cr13  1  0.39904250  0.24866850  0.69197500  1
  Cr  Cr14  1  0.10095750  0.74866850  0.30802500  1
  Cr  Cr15  1  0.89904250  0.74866850  0.69197500  1
  P  P16  1  0.64352300  0.10636300  0.00067300  1
  P  P17  1  0.35647700  0.10636300  0.99932700  1
  P  P18  1  0.50000000  0.53738200  0.00000000  1
  P  P19  1  0.50000000  0.45899700  0.50000000  1
  P  P20  1  0.64276250  0.89710450  0.49983100  1
  P  P21  1  0.35723750  0.89710450  0.50016900  1
  P  P22  1  0.14352300  0.60636300  0.00067300  1
  P  P23  1  0.85647700  0.60636300  0.99932700  1
  P  P24  1  0.00000000  0.03738200  0.00000000  1
  P  P25  1  0.00000000  0.95899700  0.50000000  1
  P  P26  1  0.14276250  0.39710450  0.49983100  1
  P  P27  1  0.85723750  0.39710450  0.50016900  1
  O  O28  1  0.35627550  0.86059650  0.32901500  1
  O  O29  1  0.92991850  0.06368450  0.33054300  1
  O  O30  1  0.64890400  0.92874800  0.98211200  1
  O  O31  1  0.54274350  0.82221850  0.33056900  1
  O  O32  1  0.54621200  0.17584300  0.82934900  1
  O  O33  1  0.74428800  0.17782800  0.01858500  1
  O  O34  1  0.25571200  0.17782800  0.98141500  1
  O  O35  1  0.35109600  0.92874800  0.01788800  1
  O  O36  1  0.42275350  0.64293350  0.01804600  1
  O  O37  1  0.07008150  0.06368450  0.66945700  1
  O  O38  1  0.41915000  0.36138000  0.51266900  1
  O  O39  1  0.64372450  0.86059650  0.67098500  1
  O  O40  1  0.35019950  0.13067050  0.82213300  1
  O  O41  1  0.57724650  0.64293350  0.98195400  1
  O  O42  1  0.92745250  0.94404850  0.82478000  1
  O  O43  1  0.58085000  0.36138000  0.48733100  1
  O  O44  1  0.65162800  0.07186500  0.48796100  1
  O  O45  1  0.74075500  0.82139500  0.51215800  1
  O  O46  1  0.25924500  0.82139500  0.48784200  1
  O  O47  1  0.45725650  0.82221850  0.66943100  1
  O  O48  1  0.45378800  0.17584300  0.17065100  1
  O  O49  1  0.34837200  0.07186500  0.51203900  1
  O  O50  1  0.07254750  0.94404850  0.17522000  1
  O  O51  1  0.64980050  0.13067050  0.17786700  1
  O  O52  1  0.85627550  0.36059650  0.32901500  1
  O  O53  1  0.42991850  0.56368450  0.33054300  1
  O  O54  1  0.14890400  0.42874800  0.98211200  1
  O  O55  1  0.04274350  0.32221850  0.33056900  1
  O  O56  1  0.04621200  0.67584300  0.82934900  1
  O  O57  1  0.24428800  0.67782800  0.01858500  1
  O  O58  1  0.75571200  0.67782800  0.98141500  1
  O  O59  1  0.85109600  0.42874800  0.01788800  1
  O  O60  1  0.92275350  0.14293350  0.01804600  1
  O  O61  1  0.57008150  0.56368450  0.66945700  1
  O  O62  1  0.91915000  0.86138000  0.51266900  1
  O  O63  1  0.14372450  0.36059650  0.67098500  1
  O  O64  1  0.85019950  0.63067050  0.82213300  1
  O  O65  1  0.07724650  0.14293350  0.98195400  1
  O  O66  1  0.42745250  0.44404850  0.82478000  1
  O  O67  1  0.08085000  0.86138000  0.48733100  1
  O  O68  1  0.15162800  0.57186500  0.48796100  1
  O  O69  1  0.24075500  0.32139500  0.51215800  1
  O  O70  1  0.75924500  0.32139500  0.48784200  1
  O  O71  1  0.95725650  0.32221850  0.66943100  1
  O  O72  1  0.95378800  0.67584300  0.17065100  1
  O  O73  1  0.84837200  0.57186500  0.51203900  1
  O  O74  1  0.57254750  0.44404850  0.17522000  1
  O  O75  1  0.14980050  0.63067050  0.17786700  1
