# generated using pymatgen
data_Li4MnFe3(PO4)4
_symmetry_space_group_name_H-M   'P 1'
_cell_length_a   7.73553600
_cell_length_b   10.51487500
_cell_length_c   7.74525644
_cell_angle_alpha   90.00000000
_cell_angle_beta   104.08871383
_cell_angle_gamma   90.00000000
_symmetry_Int_Tables_number   1
_chemical_formula_structural   Li4MnFe3(PO4)4
_chemical_formula_sum   'Li8 Mn2 Fe6 P8 O32'
_cell_volume   611.03520742
_cell_formula_units_Z   2
loop_
 _symmetry_equiv_pos_site_id
 _symmetry_equiv_pos_as_xyz
  1  'x, y, z'
loop_
 _atom_site_type_symbol
 _atom_site_label
 _atom_site_symmetry_multiplicity
 _atom_site_fract_x
 _atom_site_fract_y
 _atom_site_fract_z
 _atom_site_occupancy
  Li  Li0  1  0.24994600  0.75104100  0.24953600  1
  Li  Li1  1  0.74987200  0.75007300  0.75041700  1
  Li  Li2  1  0.99997600  0.75047600  0.49973400  1
  Li  Li3  1  0.49996000  0.75059500  0.00006100  1
  Li  Li4  1  0.24987200  0.24992700  0.75041700  1
  Li  Li5  1  0.49997600  0.24952400  0.49973400  1
  Li  Li6  1  0.74994600  0.24895900  0.24953600  1
  Li  Li7  1  0.99996000  0.24940500  0.00006100  1
  Mn  Mn8  1  0.13531700  0.46735900  0.38570000  1
  Mn  Mn9  1  0.63531700  0.53264100  0.38570000  1
  Fe  Fe10  1  0.63685800  0.46719900  0.88672300  1
  Fe  Fe11  1  0.13685800  0.53280100  0.88672300  1
  Fe  Fe12  1  0.36247100  0.96748100  0.61287200  1
  Fe  Fe13  1  0.86235600  0.96752700  0.11192600  1
  Fe  Fe14  1  0.86247100  0.03251900  0.61287200  1
  Fe  Fe15  1  0.36235600  0.03247300  0.11192600  1
  P  P16  1  0.41639200  0.34390800  0.16449300  1
  P  P17  1  0.91687000  0.34459400  0.66881100  1
  P  P18  1  0.41687000  0.65540600  0.66881100  1
  P  P19  1  0.91639200  0.65609200  0.16449300  1
  P  P20  1  0.08376400  0.84595800  0.83366400  1
  P  P21  1  0.58341700  0.84701200  0.33349400  1
  P  P22  1  0.58376400  0.15404200  0.83366400  1
  P  P23  1  0.08341700  0.15298800  0.33349400  1
  O  O24  1  0.02107900  0.28986200  0.27133000  1
  O  O25  1  0.52203500  0.29119800  0.77188700  1
  O  O26  1  0.25398800  0.34815000  0.00498700  1
  O  O27  1  0.75725100  0.34819400  0.50635100  1
  O  O28  1  0.08641100  0.41446700  0.63736000  1
  O  O29  1  0.38486800  0.41331500  0.33407600  1
  O  O30  1  0.88069300  0.41462600  0.83637200  1
  O  O31  1  0.58464600  0.41348600  0.12840100  1
  O  O32  1  0.38069300  0.58537400  0.83637200  1
  O  O33  1  0.08464600  0.58651400  0.12840100  1
  O  O34  1  0.88486800  0.58668500  0.33407600  1
  O  O35  1  0.58641100  0.58553300  0.63736000  1
  O  O36  1  0.25725100  0.65180600  0.50635100  1
  O  O37  1  0.75398800  0.65185000  0.00498700  1
  O  O38  1  0.02203500  0.70880200  0.77188700  1
  O  O39  1  0.52107900  0.71013800  0.27133000  1
  O  O40  1  0.47770500  0.79302300  0.72943000  1
  O  O41  1  0.97815000  0.79330500  0.22637300  1
  O  O42  1  0.74470900  0.84917500  0.49468600  1
  O  O43  1  0.24495100  0.84931000  0.99480300  1
  O  O44  1  0.11808800  0.91589700  0.66503000  1
  O  O45  1  0.41499400  0.91676300  0.36841700  1
  O  O46  1  0.91496300  0.91584300  0.86796900  1
  O  O47  1  0.61827000  0.91664900  0.16509500  1
  O  O48  1  0.61808800  0.08410300  0.66503000  1
  O  O49  1  0.91499400  0.08323700  0.36841700  1
  O  O50  1  0.41496300  0.08415700  0.86796900  1
  O  O51  1  0.11827000  0.08335100  0.16509500  1
  O  O52  1  0.74495100  0.15069000  0.99480300  1
  O  O53  1  0.24470900  0.15082500  0.49468600  1
  O  O54  1  0.97770500  0.20697700  0.72943000  1
  O  O55  1  0.47815000  0.20669500  0.22637300  1
