# generated using pymatgen
data_Mg3Fe2O5
_symmetry_space_group_name_H-M   'P 1'
_cell_length_a   9.73887521
_cell_length_b   4.22154424
_cell_length_c   6.88268864
_cell_angle_alpha   90.00000000
_cell_angle_beta   134.88095874
_cell_angle_gamma   90.00000000
_symmetry_Int_Tables_number   1
_chemical_formula_structural   Mg3Fe2O5
_chemical_formula_sum   'Mg6 Fe4 O10'
_cell_volume   200.50431159
_cell_formula_units_Z   2
loop_
 _symmetry_equiv_pos_site_id
 _symmetry_equiv_pos_as_xyz
  1  'x, y, z'
loop_
 _atom_site_type_symbol
 _atom_site_label
 _atom_site_symmetry_multiplicity
 _atom_site_fract_x
 _atom_site_fract_y
 _atom_site_fract_z
 _atom_site_occupancy
  Mg  Mg0  1  0.50000000  0.50000000  0.50000000  1
  Mg  Mg1  1  0.20635175  0.00000000  0.30580575  1
  Mg  Mg2  1  0.79364825  0.00000000  0.69419425  1
  Mg  Mg3  1  0.00000000  0.00000000  0.50000000  1
  Mg  Mg4  1  0.70635175  0.50000000  0.30580575  1
  Mg  Mg5  1  0.29364825  0.50000000  0.69419425  1
  Fe  Fe6  1  0.90212875  0.50000000  0.09871825  1
  Fe  Fe7  1  0.59787125  0.00000000  0.90128175  1
  Fe  Fe8  1  0.40212875  0.00000000  0.09871825  1
  Fe  Fe9  1  0.09787125  0.50000000  0.90128175  1
  O  O10  1  0.50000000  0.00000000  0.50000000  1
  O  O11  1  0.90678075  0.00000000  0.10181175  1
  O  O12  1  0.59321925  0.50000000  0.89818825  1
  O  O13  1  0.21232175  0.50000000  0.31532525  1
  O  O14  1  0.78767825  0.50000000  0.68467475  1
  O  O15  1  0.00000000  0.50000000  0.50000000  1
  O  O16  1  0.40678075  0.50000000  0.10181175  1
  O  O17  1  0.09321925  0.00000000  0.89818825  1
  O  O18  1  0.71232175  0.00000000  0.31532525  1
  O  O19  1  0.28767825  0.00000000  0.68467475  1
