# generated using pymatgen
data_Co5CuO8
_symmetry_space_group_name_H-M   'P 1'
_cell_length_a   5.76948928
_cell_length_b   5.76948928
_cell_length_c   14.29223325
_cell_angle_alpha   90.00000000
_cell_angle_beta   90.00000000
_cell_angle_gamma   120.00000000
_symmetry_Int_Tables_number   1
_chemical_formula_structural   Co5CuO8
_chemical_formula_sum   'Co15 Cu3 O24'
_cell_volume   412.00782827
_cell_formula_units_Z   3
loop_
 _symmetry_equiv_pos_site_id
 _symmetry_equiv_pos_as_xyz
  1  'x, y, z'
loop_
 _atom_site_type_symbol
 _atom_site_label
 _atom_site_symmetry_multiplicity
 _atom_site_fract_x
 _atom_site_fract_y
 _atom_site_fract_z
 _atom_site_occupancy
  Co  Co0  1  0.66666667  0.33333333  0.45781800  1
  Co  Co1  1  0.66666667  0.33333333  0.20884867  1
  Co  Co2  1  0.16666667  0.83333333  0.33333333  1
  Co  Co3  1  0.66666667  0.83333333  0.33333333  1
  Co  Co4  1  0.16666667  0.33333333  0.33333333  1
  Co  Co5  1  0.33333333  0.66666667  0.79115133  1
  Co  Co6  1  0.33333333  0.66666667  0.54218200  1
  Co  Co7  1  0.83333333  0.16666667  0.66666667  1
  Co  Co8  1  0.33333333  0.16666667  0.66666667  1
  Co  Co9  1  0.83333333  0.66666667  0.66666667  1
  Co  Co10  1  0.00000000  0.00000000  0.12448467  1
  Co  Co11  1  0.00000000  0.00000000  0.87551533  1
  Co  Co12  1  0.50000000  0.50000000  0.00000000  1
  Co  Co13  1  0.00000000  0.50000000  0.00000000  1
  Co  Co14  1  0.50000000  0.00000000  0.00000000  1
  Cu  Cu15  1  0.33333333  0.66666667  0.16666667  1
  Cu  Cu16  1  1.00000000  1.00000000  0.50000000  1
  Cu  Cu17  1  0.66666667  0.33333333  0.83333333  1
  O  O18  1  0.33333333  0.66666667  0.40426333  1
  O  O19  1  0.00000000  0.00000000  0.26240333  1
  O  O20  1  0.48580633  0.97161267  0.25780967  1
  O  O21  1  0.84752700  0.15247300  0.40885700  1
  O  O22  1  0.84752700  0.69505400  0.40885700  1
  O  O23  1  0.30494600  0.15247300  0.40885700  1
  O  O24  1  0.02838733  0.51419367  0.25780967  1
  O  O25  1  0.48580633  0.51419367  0.25780967  1
  O  O26  1  0.00000000  0.00000000  0.73759667  1
  O  O27  1  0.66666667  0.33333333  0.59573667  1
  O  O28  1  0.15247300  0.30494600  0.59114300  1
  O  O29  1  0.51419367  0.48580633  0.74219033  1
  O  O30  1  0.51419367  0.02838733  0.74219033  1
  O  O31  1  0.97161267  0.48580633  0.74219033  1
  O  O32  1  0.69505400  0.84752700  0.59114300  1
  O  O33  1  0.15247300  0.84752700  0.59114300  1
  O  O34  1  0.66666667  0.33333333  0.07093000  1
  O  O35  1  0.33333333  0.66666667  0.92907000  1
  O  O36  1  0.81913967  0.63827933  0.92447633  1
  O  O37  1  0.18086033  0.81913967  0.07552367  1
  O  O38  1  0.18086033  0.36172067  0.07552367  1
  O  O39  1  0.63827933  0.81913967  0.07552367  1
  O  O40  1  0.36172067  0.18086033  0.92447633  1
  O  O41  1  0.81913967  0.18086033  0.92447633  1
