# generated using pymatgen
data_Li2Si2NiO6
_symmetry_space_group_name_H-M   'P 1'
_cell_length_a   5.40131200
_cell_length_b   4.72675200
_cell_length_c   9.59919801
_cell_angle_alpha   90.00000000
_cell_angle_beta   92.10018387
_cell_angle_gamma   90.00000000
_symmetry_Int_Tables_number   1
_chemical_formula_structural   Li2Si2NiO6
_chemical_formula_sum   'Li4 Si4 Ni2 O12'
_cell_volume   244.90926077
_cell_formula_units_Z   2
loop_
 _symmetry_equiv_pos_site_id
 _symmetry_equiv_pos_as_xyz
  1  'x, y, z'
loop_
 _atom_site_type_symbol
 _atom_site_label
 _atom_site_symmetry_multiplicity
 _atom_site_fract_x
 _atom_site_fract_y
 _atom_site_fract_z
 _atom_site_occupancy
  Li  Li0  1  0.67390300  0.31333300  0.32343100  1
  Li  Li1  1  0.84054800  0.79776000  0.47679600  1
  Li  Li2  1  0.15945200  0.29776000  0.52320400  1
  Li  Li3  1  0.32609700  0.81333300  0.67656900  1
  Si  Si4  1  0.14533600  0.27518900  0.18141300  1
  Si  Si5  1  0.31357900  0.78015200  0.34599400  1
  Si  Si6  1  0.68642100  0.28015200  0.65400600  1
  Si  Si7  1  0.85466400  0.77518900  0.81858700  1
  Ni  Ni8  1  0.62822300  0.89040200  0.11265100  1
  Ni  Ni9  1  0.37177700  0.39040200  0.88734900  1
  O  O10  1  0.34107500  0.18773400  0.06236100  1
  O  O11  1  0.86131500  0.18459100  0.16585000  1
  O  O12  1  0.15360200  0.61958000  0.21683900  1
  O  O13  1  0.27562000  0.13201400  0.32792800  1
  O  O14  1  0.60428100  0.72239600  0.31581200  1
  O  O15  1  0.20326800  0.70114900  0.49400900  1
  O  O16  1  0.79673200  0.20114900  0.50599100  1
  O  O17  1  0.39571900  0.22239600  0.68418800  1
  O  O18  1  0.72438000  0.63201400  0.67207200  1
  O  O19  1  0.84639800  0.11958000  0.78316100  1
  O  O20  1  0.13868500  0.68459100  0.83415000  1
  O  O21  1  0.65892500  0.68773400  0.93763900  1
