# generated using pymatgen
data_Li4Co5Sb3O16
_symmetry_space_group_name_H-M   'P 1'
_cell_length_a   10.40543400
_cell_length_b   6.00529200
_cell_length_c   9.71541870
_cell_angle_alpha   90.00000000
_cell_angle_beta   90.56099982
_cell_angle_gamma   90.00000000
_symmetry_Int_Tables_number   1
_chemical_formula_structural   Li4Co5Sb3O16
_chemical_formula_sum   'Li8 Co10 Sb6 O32'
_cell_volume   607.06477282
_cell_formula_units_Z   2
loop_
 _symmetry_equiv_pos_site_id
 _symmetry_equiv_pos_as_xyz
  1  'x, y, z'
loop_
 _atom_site_type_symbol
 _atom_site_label
 _atom_site_symmetry_multiplicity
 _atom_site_fract_x
 _atom_site_fract_y
 _atom_site_fract_z
 _atom_site_occupancy
  Li  Li0  1  0.66792900  0.00000000  0.87774900  1
  Li  Li1  1  0.97989300  0.00000000  0.99022200  1
  Li  Li2  1  0.98676400  0.00000000  0.50518900  1
  Li  Li3  1  0.83119000  0.50000000  0.39870800  1
  Li  Li4  1  0.16792900  0.50000000  0.87774900  1
  Li  Li5  1  0.47989300  0.50000000  0.99022200  1
  Li  Li6  1  0.48676400  0.50000000  0.50518900  1
  Li  Li7  1  0.33119000  0.00000000  0.39870800  1
  Co  Co8  1  0.67175900  0.00000000  0.50677800  1
  Co  Co9  1  0.83296000  0.00000000  0.21697600  1
  Co  Co10  1  0.84978300  0.50000000  0.98139400  1
  Co  Co11  1  0.91601250  0.74655650  0.71423100  1
  Co  Co12  1  0.91601250  0.25344350  0.71423100  1
  Co  Co13  1  0.17175900  0.50000000  0.50677800  1
  Co  Co14  1  0.33296000  0.50000000  0.21697600  1
  Co  Co15  1  0.34978300  0.00000000  0.98139400  1
  Co  Co16  1  0.41601250  0.24655650  0.71423100  1
  Co  Co17  1  0.41601250  0.75344350  0.71423100  1
  Sb  Sb18  1  0.58678550  0.24775150  0.21496600  1
  Sb  Sb19  1  0.58678550  0.75224850  0.21496600  1
  Sb  Sb20  1  0.66998200  0.50000000  0.71539100  1
  Sb  Sb21  1  0.08678550  0.74775150  0.21496600  1
  Sb  Sb22  1  0.08678550  0.25224850  0.21496600  1
  Sb  Sb23  1  0.16998200  0.00000000  0.71539100  1
  O  O24  1  0.57654000  0.26235300  0.60425600  1
  O  O25  1  0.51358900  0.00000000  0.33533200  1
  O  O26  1  0.66018100  0.00000000  0.09672000  1
  O  O27  1  0.50811200  0.50000000  0.32197700  1
  O  O28  1  0.99606300  0.00000000  0.80901100  1
  O  O29  1  0.57654000  0.73764700  0.60425600  1
  O  O30  1  0.73975500  0.22927300  0.33575600  1
  O  O31  1  0.73975500  0.77072700  0.33575600  1
  O  O32  1  0.65835500  0.50000000  0.09713900  1
  O  O33  1  0.84036200  0.00000000  0.61498600  1
  O  O34  1  0.76459400  0.72663300  0.83279100  1
  O  O35  1  0.76459400  0.27336700  0.83279100  1
  O  O36  1  0.83777900  0.50000000  0.60934300  1
  O  O37  1  0.92519400  0.75779600  0.10351500  1
  O  O38  1  0.98097300  0.50000000  0.81994400  1
  O  O39  1  0.92519400  0.24220400  0.10351500  1
  O  O40  1  0.07654000  0.76235300  0.60425600  1
  O  O41  1  0.01358900  0.50000000  0.33533200  1
  O  O42  1  0.16018100  0.50000000  0.09672000  1
  O  O43  1  0.00811200  0.00000000  0.32197700  1
  O  O44  1  0.49606300  0.50000000  0.80901100  1
  O  O45  1  0.07654000  0.23764700  0.60425600  1
  O  O46  1  0.23975500  0.72927300  0.33575600  1
  O  O47  1  0.23975500  0.27072700  0.33575600  1
  O  O48  1  0.15835500  0.00000000  0.09713900  1
  O  O49  1  0.34036200  0.50000000  0.61498600  1
  O  O50  1  0.26459400  0.22663300  0.83279100  1
  O  O51  1  0.26459400  0.77336700  0.83279100  1
  O  O52  1  0.33777900  0.00000000  0.60934300  1
  O  O53  1  0.42519400  0.25779600  0.10351500  1
  O  O54  1  0.48097300  0.00000000  0.81994400  1
  O  O55  1  0.42519400  0.74220400  0.10351500  1
