# generated using pymatgen
data_Mn3V(PO4)6
_symmetry_space_group_name_H-M   'P 1'
_cell_length_a   8.45129219
_cell_length_b   8.45129219
_cell_length_c   21.53857570
_cell_angle_alpha   90.00000000
_cell_angle_beta   90.00000000
_cell_angle_gamma   120.00000000
_symmetry_Int_Tables_number   1
_chemical_formula_structural   Mn3V(PO4)6
_chemical_formula_sum   'Mn9 V3 P18 O72'
_cell_volume   1332.27490236
_cell_formula_units_Z   3
loop_
 _symmetry_equiv_pos_site_id
 _symmetry_equiv_pos_as_xyz
  1  'x, y, z'
loop_
 _atom_site_type_symbol
 _atom_site_label
 _atom_site_symmetry_multiplicity
 _atom_site_fract_x
 _atom_site_fract_y
 _atom_site_fract_z
 _atom_site_occupancy
  Mn  Mn0  1  0.00000000  0.00000000  0.14425100  1
  Mn  Mn1  1  0.33333333  0.66666667  0.02330567  1
  Mn  Mn2  1  0.33333333  0.66666667  0.31066367  1
  Mn  Mn3  1  0.66666667  0.33333333  0.47758433  1
  Mn  Mn4  1  0.00000000  0.00000000  0.35663900  1
  Mn  Mn5  1  0.00000000  0.00000000  0.64399700  1
  Mn  Mn6  1  0.33333333  0.66666667  0.81091767  1
  Mn  Mn7  1  0.66666667  0.33333333  0.68997233  1
  Mn  Mn8  1  0.66666667  0.33333333  0.97733033  1
  V  V9  1  0.66666667  0.33333333  0.19333933  1
  V  V10  1  0.33333333  0.66666667  0.52667267  1
  V  V11  1  0.00000000  0.00000000  0.86000600  1
  P  P12  1  0.66674133  0.61867467  0.08304167  1
  P  P13  1  0.95193333  0.33325867  0.08304167  1
  P  P14  1  0.38132533  0.04806667  0.08304167  1
  P  P15  1  0.28016067  0.28465933  0.25073533  1
  P  P16  1  0.71534067  0.99550133  0.25073533  1
  P  P17  1  0.00449867  0.71983933  0.25073533  1
  P  P18  1  0.33340800  0.95200800  0.41637500  1
  P  P19  1  0.61860000  0.66659200  0.41637500  1
  P  P20  1  0.04799200  0.38140000  0.41637500  1
  P  P21  1  0.94682733  0.61799267  0.58406867  1
  P  P22  1  0.38200733  0.32883467  0.58406867  1
  P  P23  1  0.67116533  0.05317267  0.58406867  1
  P  P24  1  0.00007467  0.28534133  0.74970833  1
  P  P25  1  0.28526667  0.99992533  0.74970833  1
  P  P26  1  0.71465867  0.71473333  0.74970833  1
  P  P27  1  0.61349400  0.95132600  0.91740200  1
  P  P28  1  0.04867400  0.66216800  0.91740200  1
  P  P29  1  0.33783200  0.38650600  0.91740200  1
  O  O30  1  0.96189833  0.79490167  0.30931967  1
  O  O31  1  0.20509833  0.16699667  0.30931967  1
  O  O32  1  0.83780067  0.80927833  0.08836833  1
  O  O33  1  0.83300333  0.03810167  0.30931967  1
  O  O34  1  0.49373867  0.63505133  0.07915733  1
  O  O35  1  0.63879800  0.50011400  0.14137100  1
  O  O36  1  0.97147767  0.16219933  0.08836833  1
  O  O37  1  0.14131267  0.50626133  0.07915733  1
  O  O38  1  0.36494867  0.85868733  0.07915733  1
  O  O39  1  0.16759433  0.20329167  0.19135767  1
  O  O40  1  0.47330600  0.30457500  0.24195000  1
  O  O41  1  0.79670833  0.96430267  0.19135767  1
  O  O42  1  0.86131600  0.36120200  0.14137100  1
  O  O43  1  0.19072167  0.02852233  0.08836833  1
  O  O44  1  0.49988600  0.13868400  0.14137100  1
  O  O45  1  0.30379333  0.47547367  0.25551367  1
  O  O46  1  0.52452633  0.82831967  0.25551367  1
  O  O47  1  0.69542500  0.16873100  0.24195000  1
  O  O48  1  0.03569733  0.83240567  0.19135767  1
  O  O49  1  0.17168033  0.69620667  0.25551367  1
  O  O50  1  0.83632900  0.29865100  0.02422000  1
  O  O51  1  0.83126900  0.52669400  0.24195000  1
  O  O52  1  0.46232200  0.16367100  0.02422000  1
  O  O53  1  0.70134900  0.53767800  0.02422000  1
  O  O54  1  0.62856500  0.12823500  0.64265300  1
  O  O55  1  0.87176500  0.50033000  0.64265300  1
  O  O56  1  0.50446733  0.14261167  0.42170167  1
  O  O57  1  0.49967000  0.37143500  0.64265300  1
  O  O58  1  0.16040533  0.96838467  0.41249067  1
  O  O59  1  0.30546467  0.83344733  0.47470433  1
  O  O60  1  0.63814433  0.49553267  0.42170167  1
  O  O61  1  0.80797933  0.83959467  0.41249067  1
  O  O62  1  0.03161533  0.19202067  0.41249067  1
  O  O63  1  0.83426100  0.53662500  0.52469100  1
  O  O64  1  0.13997267  0.63790833  0.57528333  1
  O  O65  1  0.46337500  0.29763600  0.52469100  1
  O  O66  1  0.52798267  0.69453533  0.47470433  1
  O  O67  1  0.85738833  0.36185567  0.42170167  1
  O  O68  1  0.16655267  0.47201733  0.47470433  1
  O  O69  1  0.97046000  0.80880700  0.58884700  1
  O  O70  1  0.19119300  0.16165300  0.58884700  1
  O  O71  1  0.36209167  0.50206433  0.57528333  1
  O  O72  1  0.70236400  0.16573900  0.52469100  1
  O  O73  1  0.83834700  0.02954000  0.58884700  1
  O  O74  1  0.50299567  0.63198433  0.35755333  1
  O  O75  1  0.49793567  0.86002733  0.57528333  1
  O  O76  1  0.12898867  0.49700433  0.35755333  1
  O  O77  1  0.36801567  0.87101133  0.35755333  1
  O  O78  1  0.29523167  0.46156833  0.97598633  1
  O  O79  1  0.53843167  0.83366333  0.97598633  1
  O  O80  1  0.17113400  0.47594500  0.75503500  1
  O  O81  1  0.16633667  0.70476833  0.97598633  1
  O  O82  1  0.82707200  0.30171800  0.74582400  1
  O  O83  1  0.97213133  0.16678067  0.80803767  1
  O  O84  1  0.30481100  0.82886600  0.75503500  1
  O  O85  1  0.47464600  0.17292800  0.74582400  1
  O  O86  1  0.69828200  0.52535400  0.74582400  1
  O  O87  1  0.50092767  0.86995833  0.85802433  1
  O  O88  1  0.80663933  0.97124167  0.90861667  1
  O  O89  1  0.13004167  0.63096933  0.85802433  1
  O  O90  1  0.19464933  0.02786867  0.80803767  1
  O  O91  1  0.52405500  0.69518900  0.75503500  1
  O  O92  1  0.83321933  0.80535067  0.80803767  1
  O  O93  1  0.63712667  0.14214033  0.92218033  1
  O  O94  1  0.85785967  0.49498633  0.92218033  1
  O  O95  1  0.02875833  0.83539767  0.90861667  1
  O  O96  1  0.36903067  0.49907233  0.85802433  1
  O  O97  1  0.50501367  0.36287333  0.92218033  1
  O  O98  1  0.16966233  0.96531767  0.69088667  1
  O  O99  1  0.16460233  0.19336067  0.90861667  1
  O  O100  1  0.79565533  0.83033767  0.69088667  1
  O  O101  1  0.03468233  0.20434467  0.69088667  1
