# generated using pymatgen
data_Ce(WO4)2
_symmetry_space_group_name_H-M   'P 1'
_cell_length_a   12.14849000
_cell_length_b   8.29711400
_cell_length_c   7.91400423
_cell_angle_alpha   90.00000000
_cell_angle_beta   122.37891298
_cell_angle_gamma   90.00000000
_symmetry_Int_Tables_number   1
_chemical_formula_structural   Ce(WO4)2
_chemical_formula_sum   'Ce4 W8 O32'
_cell_volume   673.68702587
_cell_formula_units_Z   4
loop_
 _symmetry_equiv_pos_site_id
 _symmetry_equiv_pos_as_xyz
  1  'x, y, z'
loop_
 _atom_site_type_symbol
 _atom_site_label
 _atom_site_symmetry_multiplicity
 _atom_site_fract_x
 _atom_site_fract_y
 _atom_site_fract_z
 _atom_site_occupancy
  Ce  Ce0  1  0.00000000  0.03490600  0.75000000  1
  Ce  Ce1  1  0.00000000  0.96509400  0.25000000  1
  Ce  Ce2  1  0.50000000  0.53490600  0.75000000  1
  Ce  Ce3  1  0.50000000  0.46509400  0.25000000  1
  W  W4  1  0.21620100  0.72269500  0.76829200  1
  W  W5  1  0.21620100  0.27730500  0.26829200  1
  W  W6  1  0.78379900  0.72269500  0.73170800  1
  W  W7  1  0.78379900  0.27730500  0.23170800  1
  W  W8  1  0.71620100  0.22269500  0.76829200  1
  W  W9  1  0.71620100  0.77730500  0.26829200  1
  W  W10  1  0.28379900  0.22269500  0.73170800  1
  W  W11  1  0.28379900  0.77730500  0.23170800  1
  O  O12  1  0.13219100  0.54170500  0.67528100  1
  O  O13  1  0.09888900  0.87929400  0.58493400  1
  O  O14  1  0.15489150  0.20544450  0.78597300  1
  O  O15  1  0.15587650  0.83190450  0.94069300  1
  O  O16  1  0.13219100  0.45829500  0.17528100  1
  O  O17  1  0.09888900  0.12070600  0.08493400  1
  O  O18  1  0.15489150  0.79455550  0.28597300  1
  O  O19  1  0.15587650  0.16809550  0.44069300  1
  O  O20  1  0.84412350  0.83190450  0.55930700  1
  O  O21  1  0.84510850  0.20544450  0.71402700  1
  O  O22  1  0.90111100  0.87929400  0.91506600  1
  O  O23  1  0.86780900  0.54170500  0.82471900  1
  O  O24  1  0.84412350  0.16809550  0.05930700  1
  O  O25  1  0.84510850  0.79455550  0.21402700  1
  O  O26  1  0.90111100  0.12070600  0.41506600  1
  O  O27  1  0.86780900  0.45829500  0.32471900  1
  O  O28  1  0.63219100  0.04170500  0.67528100  1
  O  O29  1  0.59888900  0.37929400  0.58493400  1
  O  O30  1  0.65489150  0.70544450  0.78597300  1
  O  O31  1  0.65587650  0.33190450  0.94069300  1
  O  O32  1  0.63219100  0.95829500  0.17528100  1
  O  O33  1  0.59888900  0.62070600  0.08493400  1
  O  O34  1  0.65489150  0.29455550  0.28597300  1
  O  O35  1  0.65587650  0.66809550  0.44069300  1
  O  O36  1  0.34412350  0.33190450  0.55930700  1
  O  O37  1  0.34510850  0.70544450  0.71402700  1
  O  O38  1  0.40111100  0.37929400  0.91506600  1
  O  O39  1  0.36780900  0.04170500  0.82471900  1
  O  O40  1  0.34412350  0.66809550  0.05930700  1
  O  O41  1  0.34510850  0.29455550  0.21402700  1
  O  O42  1  0.40111100  0.62070600  0.41506600  1
  O  O43  1  0.36780900  0.95829500  0.32471900  1
