# generated using pymatgen
data_LiNi2OF3
_symmetry_space_group_name_H-M   'P 1'
_cell_length_a   5.98344779
_cell_length_b   5.98344779
_cell_length_c   15.16355204
_cell_angle_alpha   90.00000000
_cell_angle_beta   90.00000000
_cell_angle_gamma   120.00000000
_symmetry_Int_Tables_number   1
_chemical_formula_structural   LiNi2OF3
_chemical_formula_sum   'Li6 Ni12 O6 F18'
_cell_volume   470.14799600
_cell_formula_units_Z   6
loop_
 _symmetry_equiv_pos_site_id
 _symmetry_equiv_pos_as_xyz
  1  'x, y, z'
loop_
 _atom_site_type_symbol
 _atom_site_label
 _atom_site_symmetry_multiplicity
 _atom_site_fract_x
 _atom_site_fract_y
 _atom_site_fract_z
 _atom_site_occupancy
  Li  Li0  1  0.33333333  0.66666667  0.31322217  1
  Li  Li1  1  0.00000000  0.00000000  0.35344450  1
  Li  Li2  1  0.00000000  0.00000000  0.64655550  1
  Li  Li3  1  0.66666667  0.33333333  0.68677783  1
  Li  Li4  1  0.66666667  0.33333333  0.97988883  1
  Li  Li5  1  0.33333333  0.66666667  0.02011117  1
  Ni  Ni6  1  0.66666667  0.33333333  0.33333333  1
  Ni  Ni7  1  0.50000000  0.50000000  0.50000000  1
  Ni  Ni8  1  0.00000000  0.50000000  0.50000000  1
  Ni  Ni9  1  0.50000000  0.00000000  0.50000000  1
  Ni  Ni10  1  0.33333333  0.66666667  0.66666667  1
  Ni  Ni11  1  0.16666667  0.83333333  0.83333333  1
  Ni  Ni12  1  0.66666667  0.83333333  0.83333333  1
  Ni  Ni13  1  0.16666667  0.33333333  0.83333333  1
  Ni  Ni14  1  1.00000000  1.00000000  0.00000000  1
  Ni  Ni15  1  0.83333333  0.16666667  0.16666667  1
  Ni  Ni16  1  0.33333333  0.16666667  0.16666667  1
  Ni  Ni17  1  0.83333333  0.66666667  0.16666667  1
  O  O18  1  0.33333333  0.66666667  0.43940217  1
  O  O19  1  0.66666667  0.33333333  0.56059783  1
  O  O20  1  0.00000000  0.00000000  0.77273550  1
  O  O21  1  0.33333333  0.66666667  0.89393117  1
  O  O22  1  0.66666667  0.33333333  0.10606883  1
  O  O23  1  0.00000000  0.00000000  0.22726450  1
  F  F24  1  0.82644208  0.65288417  0.41119517  1
  F  F25  1  0.17355792  0.82644208  0.58880483  1
  F  F26  1  0.34711583  0.17355792  0.41119517  1
  F  F27  1  0.17355792  0.34711583  0.58880483  1
  F  F28  1  0.65288417  0.82644208  0.58880483  1
  F  F29  1  0.82644208  0.17355792  0.41119517  1
  F  F30  1  0.49310875  0.98621750  0.74452850  1
  F  F31  1  0.84022458  0.15977542  0.92213817  1
  F  F32  1  0.01378250  0.50689125  0.74452850  1
  F  F33  1  0.84022458  0.68044917  0.92213817  1
  F  F34  1  0.31955083  0.15977542  0.92213817  1
  F  F35  1  0.49310875  0.50689125  0.74452850  1
  F  F36  1  0.15977542  0.31955083  0.07786183  1
  F  F37  1  0.50689125  0.49310875  0.25547150  1
  F  F38  1  0.68044917  0.84022458  0.07786183  1
  F  F39  1  0.50689125  0.01378250  0.25547150  1
  F  F40  1  0.98621750  0.49310875  0.25547150  1
  F  F41  1  0.15977542  0.84022458  0.07786183  1
