# generated using pymatgen
data_Li4Mn2Fe(BO3)4
_symmetry_space_group_name_H-M   'P 1'
_cell_length_a   5.26629500
_cell_length_b   9.18888100
_cell_length_c   10.72720117
_cell_angle_alpha   90.00000000
_cell_angle_beta   116.31304377
_cell_angle_gamma   90.00000000
_symmetry_Int_Tables_number   1
_chemical_formula_structural   Li4Mn2Fe(BO3)4
_chemical_formula_sum   'Li8 Mn4 Fe2 B8 O24'
_cell_volume   465.31716889
_cell_formula_units_Z   2
loop_
 _symmetry_equiv_pos_site_id
 _symmetry_equiv_pos_as_xyz
  1  'x, y, z'
loop_
 _atom_site_type_symbol
 _atom_site_label
 _atom_site_symmetry_multiplicity
 _atom_site_fract_x
 _atom_site_fract_y
 _atom_site_fract_z
 _atom_site_occupancy
  Li  Li0  1  0.50187200  0.75894300  0.33513100  1
  Li  Li1  1  0.54790700  0.08796900  0.37204600  1
  Li  Li2  1  0.07052700  0.75701500  0.88577600  1
  Li  Li3  1  0.50155000  0.28042000  0.15894000  1
  Li  Li4  1  0.07052700  0.24298500  0.38577600  1
  Li  Li5  1  0.50187200  0.24105700  0.83513100  1
  Li  Li6  1  0.54790700  0.91203100  0.87204600  1
  Li  Li7  1  0.50155000  0.71958000  0.65894000  1
  Mn  Mn8  1  0.02398400  0.44339400  0.88029200  1
  Mn  Mn9  1  0.97911300  0.92692500  0.62393800  1
  Mn  Mn10  1  0.02398400  0.55660600  0.38029200  1
  Mn  Mn11  1  0.97911300  0.07307500  0.12393800  1
  Fe  Fe12  1  0.92824400  0.26497700  0.61307700  1
  Fe  Fe13  1  0.92824400  0.73502300  0.11307700  1
  B  B14  1  0.55098400  0.42744800  0.38514100  1
  B  B15  1  0.03103700  0.09116000  0.86403000  1
  B  B16  1  0.44318300  0.93672100  0.11817700  1
  B  B17  1  0.97042600  0.59762000  0.63182300  1
  B  B18  1  0.03103700  0.90884000  0.36403000  1
  B  B19  1  0.55098400  0.57255200  0.88514100  1
  B  B20  1  0.97042600  0.40238000  0.13182300  1
  B  B21  1  0.44318300  0.06327900  0.61817700  1
  O  O22  1  0.16465300  0.40599900  0.07660600  1
  O  O23  1  0.67637800  0.07782500  0.58871900  1
  O  O24  1  0.28732600  0.81703000  0.11337800  1
  O  O25  1  0.85668900  0.72506400  0.65042400  1
  O  O26  1  0.38114900  0.07438600  0.15231400  1
  O  O27  1  0.89810200  0.46807200  0.67907000  1
  O  O28  1  0.63917000  0.56360800  0.36514400  1
  O  O29  1  0.11418100  0.95971700  0.82437300  1
  O  O30  1  0.12829700  0.22202200  0.84190600  1
  O  O31  1  0.70846000  0.30186700  0.39090000  1
  O  O32  1  0.83606100  0.91744600  0.42109000  1
  O  O33  1  0.30852100  0.58843400  0.90102100  1
  O  O34  1  0.67637800  0.92217500  0.08871900  1
  O  O35  1  0.16465300  0.59400100  0.57660600  1
  O  O36  1  0.85668900  0.27493600  0.15042400  1
  O  O37  1  0.89810200  0.53192800  0.17907000  1
  O  O38  1  0.28732600  0.18297000  0.61337800  1
  O  O39  1  0.38114900  0.92561400  0.65231400  1
  O  O40  1  0.11418100  0.04028300  0.32437300  1
  O  O41  1  0.12829700  0.77797800  0.34190600  1
  O  O42  1  0.63917000  0.43639200  0.86514400  1
  O  O43  1  0.70846000  0.69813300  0.89090000  1
  O  O44  1  0.30852100  0.41156600  0.40102100  1
  O  O45  1  0.83606100  0.08255400  0.92109000  1
