# generated using pymatgen
data_Mn4TeO8
_symmetry_space_group_name_H-M   'P 1'
_cell_length_a   10.93778826
_cell_length_b   6.15133994
_cell_length_c   6.39850638
_cell_angle_alpha   90.00000000
_cell_angle_beta   125.30498491
_cell_angle_gamma   90.00000000
_symmetry_Int_Tables_number   1
_chemical_formula_structural   Mn4TeO8
_chemical_formula_sum   'Mn8 Te2 O16'
_cell_volume   351.32938249
_cell_formula_units_Z   2
loop_
 _symmetry_equiv_pos_site_id
 _symmetry_equiv_pos_as_xyz
  1  'x, y, z'
loop_
 _atom_site_type_symbol
 _atom_site_label
 _atom_site_symmetry_multiplicity
 _atom_site_fract_x
 _atom_site_fract_y
 _atom_site_fract_z
 _atom_site_occupancy
  Mn  Mn0  1  0.00000000  0.50000000  0.00000000  1
  Mn  Mn1  1  0.75000000  0.75000000  0.50000000  1
  Mn  Mn2  1  0.00000000  0.00000000  0.50000000  1
  Mn  Mn3  1  0.25000000  0.75000000  0.50000000  1
  Mn  Mn4  1  0.50000000  0.00000000  0.00000000  1
  Mn  Mn5  1  0.25000000  0.25000000  0.50000000  1
  Mn  Mn6  1  0.50000000  0.50000000  0.50000000  1
  Mn  Mn7  1  0.75000000  0.25000000  0.50000000  1
  Te  Te8  1  0.00000000  0.50000000  0.50000000  1
  Te  Te9  1  0.50000000  0.00000000  0.50000000  1
  O  O10  1  0.72196400  0.00000000  0.68879300  1
  O  O11  1  0.27803600  0.00000000  0.31120700  1
  O  O12  1  0.74954600  0.50000000  0.68582800  1
  O  O13  1  0.25045400  0.50000000  0.31417200  1
  O  O14  1  0.99913700  0.72262600  0.71767400  1
  O  O15  1  0.99913700  0.27737400  0.71767400  1
  O  O16  1  0.00086300  0.27737400  0.28232600  1
  O  O17  1  0.00086300  0.72262600  0.28232600  1
  O  O18  1  0.22196400  0.50000000  0.68879300  1
  O  O19  1  0.77803600  0.50000000  0.31120700  1
  O  O20  1  0.24954600  0.00000000  0.68582800  1
  O  O21  1  0.75045400  0.00000000  0.31417200  1
  O  O22  1  0.49913700  0.22262600  0.71767400  1
  O  O23  1  0.49913700  0.77737400  0.71767400  1
  O  O24  1  0.50086300  0.77737400  0.28232600  1
  O  O25  1  0.50086300  0.22262600  0.28232600  1
