# generated using pymatgen
data_Li3V3P8O29
_symmetry_space_group_name_H-M   'P 1'
_cell_length_a   16.81092600
_cell_length_b   9.79758000
_cell_length_c   14.24013103
_cell_angle_alpha   90.00000000
_cell_angle_beta   90.68947487
_cell_angle_gamma   90.00000000
_symmetry_Int_Tables_number   1
_chemical_formula_structural   Li3V3P8O29
_chemical_formula_sum   'Li12 V12 P32 O116'
_cell_volume   2345.27079144
_cell_formula_units_Z   4
loop_
 _symmetry_equiv_pos_site_id
 _symmetry_equiv_pos_as_xyz
  1  'x, y, z'
loop_
 _atom_site_type_symbol
 _atom_site_label
 _atom_site_symmetry_multiplicity
 _atom_site_fract_x
 _atom_site_fract_y
 _atom_site_fract_z
 _atom_site_occupancy
  Li  Li0  1  0.61854600  0.28694000  0.05787000  1
  Li  Li1  1  0.38145400  0.28694000  0.44213000  1
  Li  Li2  1  0.61854600  0.71306000  0.55787000  1
  Li  Li3  1  0.38145400  0.71306000  0.94213000  1
  Li  Li4  1  0.00000000  0.00000000  0.00000000  1
  Li  Li5  1  0.00000000  0.00000000  0.50000000  1
  Li  Li6  1  0.11854600  0.78694000  0.05787000  1
  Li  Li7  1  0.88145400  0.78694000  0.44213000  1
  Li  Li8  1  0.11854600  0.21306000  0.55787000  1
  Li  Li9  1  0.88145400  0.21306000  0.94213000  1
  Li  Li10  1  0.50000000  0.50000000  0.00000000  1
  Li  Li11  1  0.50000000  0.50000000  0.50000000  1
  V  V12  1  0.78048650  0.78296050  0.23995900  1
  V  V13  1  0.21951350  0.21703950  0.76004100  1
  V  V14  1  0.50000000  0.06304000  0.75000000  1
  V  V15  1  0.50000000  0.93696000  0.25000000  1
  V  V16  1  0.21951350  0.78296050  0.26004100  1
  V  V17  1  0.78048650  0.21703950  0.73995900  1
  V  V18  1  0.28048650  0.28296050  0.23995900  1
  V  V19  1  0.71951350  0.71703950  0.76004100  1
  V  V20  1  0.00000000  0.56304000  0.75000000  1
  V  V21  1  0.00000000  0.43696000  0.25000000  1
  V  V22  1  0.71951350  0.28296050  0.26004100  1
  V  V23  1  0.28048650  0.71703950  0.73995900  1
  P  P24  1  0.61364350  0.29936150  0.84101500  1
  P  P25  1  0.54122500  0.23515400  0.34285700  1
  P  P26  1  0.84973150  0.06216950  0.33998800  1
  P  P27  1  0.66477300  0.00712500  0.13294200  1
  P  P28  1  0.66477300  0.99287500  0.63294200  1
  P  P29  1  0.84973150  0.93783050  0.83998800  1
  P  P30  1  0.38635650  0.29936150  0.65898500  1
  P  P31  1  0.54122500  0.76484600  0.84285700  1
  P  P32  1  0.45877500  0.23515400  0.15714300  1
  P  P33  1  0.61364350  0.70063850  0.34101500  1
  P  P34  1  0.15026850  0.06216950  0.16001200  1
  P  P35  1  0.33522700  0.00712500  0.36705800  1
  P  P36  1  0.33522700  0.99287500  0.86705800  1
  P  P37  1  0.15026850  0.93783050  0.66001200  1
  P  P38  1  0.45877500  0.76484600  0.65714300  1
  P  P39  1  0.38635650  0.70063850  0.15898500  1
  P  P40  1  0.11364350  0.79936150  0.84101500  1
  P  P41  1  0.04122500  0.73515400  0.34285700  1
  P  P42  1  0.34973150  0.56216950  0.33998800  1
  P  P43  1  0.16477300  0.50712500  0.13294200  1
  P  P44  1  0.16477300  0.49287500  0.63294200  1
  P  P45  1  0.34973150  0.43783050  0.83998800  1
  P  P46  1  0.88635650  0.79936150  0.65898500  1
  P  P47  1  0.04122500  0.26484600  0.84285700  1
  P  P48  1  0.95877500  0.73515400  0.15714300  1
  P  P49  1  0.11364350  0.20063850  0.34101500  1
  P  P50  1  0.65026850  0.56216950  0.16001200  1
  P  P51  1  0.83522700  0.50712500  0.36705800  1
  P  P52  1  0.83522700  0.49287500  0.86705800  1
  P  P53  1  0.65026850  0.43783050  0.66001200  1
  P  P54  1  0.95877500  0.26484600  0.65714300  1
  P  P55  1  0.88635650  0.20063850  0.15898500  1
  O  O56  1  0.10057450  0.90783050  0.57616000  1
  O  O57  1  0.62996450  0.28071650  0.33563500  1
  O  O58  1  0.50143150  0.29359550  0.07499200  1
  O  O59  1  0.54478800  0.19513500  0.82844700  1
  O  O60  1  0.69297000  0.22428700  0.82253400  1
  O  O61  1  0.66590100  0.15420000  0.17596100  1
  O  O62  1  0.77106200  0.14887700  0.32996400  1
  O  O63  1  0.39100700  0.62960500  0.06663700  1
  O  O64  1  0.82743650  0.09127150  0.83333500  1
  O  O65  1  0.59312050  0.06652250  0.68020000  1
  O  O66  1  0.53832450  0.07856850  0.33150600  1
  O  O67  1  0.73999450  0.07094750  0.67573300  1
  O  O68  1  0.66360200  0.00882900  0.02892300  1
  O  O69  1  0.66360200  0.99117100  0.52892300  1
  O  O70  1  0.73999450  0.92905250  0.17573300  1
  O  O71  1  0.53832450  0.92143150  0.83150600  1
  O  O72  1  0.59312050  0.93347750  0.18020000  1
  O  O73  1  0.82743650  0.90872850  0.33333500  1
  O  O74  1  0.89691250  0.90745050  0.74325400  1
  O  O75  1  0.39100700  0.37039500  0.56663700  1
  O  O76  1  0.89942550  0.90783050  0.92384000  1
  O  O77  1  0.77106200  0.85112300  0.82996400  1
  O  O78  1  0.66590100  0.84580000  0.67596100  1
  O  O79  1  0.37003550  0.28071650  0.16436500  1
  O  O80  1  0.69297000  0.77571300  0.32253400  1
  O  O81  1  0.54478800  0.80486500  0.32844700  1
  O  O82  1  0.50000000  0.29906900  0.25000000  1
  O  O83  1  0.49856850  0.29359550  0.42500800  1
  O  O84  1  0.50143150  0.70640450  0.57499200  1
  O  O85  1  0.45521200  0.19513500  0.67155300  1
  O  O86  1  0.30703000  0.22428700  0.67746600  1
  O  O87  1  0.62996450  0.71928350  0.83563500  1
  O  O88  1  0.33409900  0.15420000  0.32403900  1
  O  O89  1  0.22893800  0.14887700  0.17003600  1
  O  O90  1  0.10057450  0.09216950  0.07616000  1
  O  O91  1  0.60899300  0.62960500  0.43336300  1
  O  O92  1  0.10308750  0.09254950  0.25674600  1
  O  O93  1  0.17256350  0.09127150  0.66666500  1
  O  O94  1  0.40687950  0.06652250  0.81980000  1
  O  O95  1  0.46167550  0.07856850  0.16849400  1
  O  O96  1  0.26000550  0.07094750  0.82426700  1
  O  O97  1  0.33639800  0.99117100  0.97107700  1
  O  O98  1  0.33639800  0.00882900  0.47107700  1
  O  O99  1  0.26000550  0.92905250  0.32426700  1
  O  O100  1  0.46167550  0.92143150  0.66849400  1
  O  O101  1  0.40687950  0.93347750  0.31980000  1
  O  O102  1  0.17256350  0.90872850  0.16666500  1
  O  O103  1  0.10308750  0.90745050  0.75674600  1
  O  O104  1  0.60899300  0.37039500  0.93336300  1
  O  O105  1  0.22893800  0.85112300  0.67003600  1
  O  O106  1  0.33409900  0.84580000  0.82403900  1
  O  O107  1  0.30703000  0.77571300  0.17746600  1
  O  O108  1  0.45521200  0.80486500  0.17155300  1
  O  O109  1  0.49856850  0.70640450  0.92500800  1
  O  O110  1  0.50000000  0.70093100  0.75000000  1
  O  O111  1  0.37003550  0.71928350  0.66436500  1
  O  O112  1  0.89942550  0.09216950  0.42384000  1
  O  O113  1  0.89691250  0.09254950  0.24325400  1
  O  O114  1  0.60057450  0.40783050  0.57616000  1
  O  O115  1  0.12996450  0.78071650  0.33563500  1
  O  O116  1  0.00143150  0.79359550  0.07499200  1
  O  O117  1  0.04478800  0.69513500  0.82844700  1
  O  O118  1  0.19297000  0.72428700  0.82253400  1
  O  O119  1  0.16590100  0.65420000  0.17596100  1
  O  O120  1  0.27106200  0.64887700  0.32996400  1
  O  O121  1  0.89100700  0.12960500  0.06663700  1
  O  O122  1  0.32743650  0.59127150  0.83333500  1
  O  O123  1  0.09312050  0.56652250  0.68020000  1
  O  O124  1  0.03832450  0.57856850  0.33150600  1
  O  O125  1  0.23999450  0.57094750  0.67573300  1
  O  O126  1  0.16360200  0.50882900  0.02892300  1
  O  O127  1  0.16360200  0.49117100  0.52892300  1
  O  O128  1  0.23999450  0.42905250  0.17573300  1
  O  O129  1  0.03832450  0.42143150  0.83150600  1
  O  O130  1  0.09312050  0.43347750  0.18020000  1
  O  O131  1  0.32743650  0.40872850  0.33333500  1
  O  O132  1  0.39691250  0.40745050  0.74325400  1
  O  O133  1  0.89100700  0.87039500  0.56663700  1
  O  O134  1  0.39942550  0.40783050  0.92384000  1
  O  O135  1  0.27106200  0.35112300  0.82996400  1
  O  O136  1  0.16590100  0.34580000  0.67596100  1
  O  O137  1  0.87003550  0.78071650  0.16436500  1
  O  O138  1  0.19297000  0.27571300  0.32253400  1
  O  O139  1  0.04478800  0.30486500  0.32844700  1
  O  O140  1  0.00000000  0.79906900  0.25000000  1
  O  O141  1  0.99856850  0.79359550  0.42500800  1
  O  O142  1  0.00143150  0.20640450  0.57499200  1
  O  O143  1  0.95521200  0.69513500  0.67155300  1
  O  O144  1  0.80703000  0.72428700  0.67746600  1
  O  O145  1  0.12996450  0.21928350  0.83563500  1
  O  O146  1  0.83409900  0.65420000  0.32403900  1
  O  O147  1  0.72893800  0.64887700  0.17003600  1
  O  O148  1  0.60057450  0.59216950  0.07616000  1
  O  O149  1  0.10899300  0.12960500  0.43336300  1
  O  O150  1  0.60308750  0.59254950  0.25674600  1
  O  O151  1  0.67256350  0.59127150  0.66666500  1
  O  O152  1  0.90687950  0.56652250  0.81980000  1
  O  O153  1  0.96167550  0.57856850  0.16849400  1
  O  O154  1  0.76000550  0.57094750  0.82426700  1
  O  O155  1  0.83639800  0.49117100  0.97107700  1
  O  O156  1  0.83639800  0.50882900  0.47107700  1
  O  O157  1  0.76000550  0.42905250  0.32426700  1
  O  O158  1  0.96167550  0.42143150  0.66849400  1
  O  O159  1  0.90687950  0.43347750  0.31980000  1
  O  O160  1  0.67256350  0.40872850  0.16666500  1
  O  O161  1  0.60308750  0.40745050  0.75674600  1
  O  O162  1  0.10899300  0.87039500  0.93336300  1
  O  O163  1  0.72893800  0.35112300  0.67003600  1
  O  O164  1  0.83409900  0.34580000  0.82403900  1
  O  O165  1  0.80703000  0.27571300  0.17746600  1
  O  O166  1  0.95521200  0.30486500  0.17155300  1
  O  O167  1  0.99856850  0.20640450  0.92500800  1
  O  O168  1  0.00000000  0.20093100  0.75000000  1
  O  O169  1  0.87003550  0.21928350  0.66436500  1
  O  O170  1  0.39942550  0.59216950  0.42384000  1
  O  O171  1  0.39691250  0.59254950  0.24325400  1
