# generated using pymatgen
data_TiNi5(PO4)6
_symmetry_space_group_name_H-M   'P 1'
_cell_length_a   8.62224003
_cell_length_b   8.62224003
_cell_length_c   20.68942619
_cell_angle_alpha   90.00000000
_cell_angle_beta   90.00000000
_cell_angle_gamma   120.00000000
_symmetry_Int_Tables_number   1
_chemical_formula_structural   TiNi5(PO4)6
_chemical_formula_sum   'Ti3 Ni15 P18 O72'
_cell_volume   1332.04622217
_cell_formula_units_Z   3
loop_
 _symmetry_equiv_pos_site_id
 _symmetry_equiv_pos_as_xyz
  1  'x, y, z'
loop_
 _atom_site_type_symbol
 _atom_site_label
 _atom_site_symmetry_multiplicity
 _atom_site_fract_x
 _atom_site_fract_y
 _atom_site_fract_z
 _atom_site_occupancy
  Ti  Ti0  1  0.33333333  0.66666667  0.52117967  1
  Ti  Ti1  1  0.00000000  0.00000000  0.85451300  1
  Ti  Ti2  1  0.66666667  0.33333333  0.18784633  1
  Ni  Ni3  1  0.33333333  0.66666667  0.66753567  1
  Ni  Ni4  1  0.33333333  0.66666667  0.02643167  1
  Ni  Ni5  1  0.33333333  0.66666667  0.16765467  1
  Ni  Ni6  1  0.33333333  0.66666667  0.80924567  1
  Ni  Ni7  1  0.33333333  0.66666667  0.30893867  1
  Ni  Ni8  1  0.00000000  0.00000000  0.00086900  1
  Ni  Ni9  1  0.00000000  0.00000000  0.35976500  1
  Ni  Ni10  1  0.00000000  0.00000000  0.50098800  1
  Ni  Ni11  1  0.00000000  0.00000000  0.14257900  1
  Ni  Ni12  1  0.00000000  0.00000000  0.64227200  1
  Ni  Ni13  1  0.66666667  0.33333333  0.33420233  1
  Ni  Ni14  1  0.66666667  0.33333333  0.69309833  1
  Ni  Ni15  1  0.66666667  0.33333333  0.83432133  1
  Ni  Ni16  1  0.66666667  0.33333333  0.47591233  1
  Ni  Ni17  1  0.66666667  0.33333333  0.97560533  1
  P  P18  1  0.66618933  0.63074667  0.08288267  1
  P  P19  1  0.96455733  0.33381067  0.08288267  1
  P  P20  1  0.36925333  0.03544267  0.08288267  1
  P  P21  1  0.29600900  0.29716800  0.25056700  1
  P  P22  1  0.70283200  0.99884100  0.25056700  1
  P  P23  1  0.00115900  0.70399100  0.25056700  1
  P  P24  1  0.33285600  0.96408000  0.41621600  1
  P  P25  1  0.63122400  0.66714400  0.41621600  1
  P  P26  1  0.03592000  0.36877600  0.41621600  1
  P  P27  1  0.96267567  0.63050133  0.58390033  1
  P  P28  1  0.36949867  0.33217433  0.58390033  1
  P  P29  1  0.66782567  0.03732433  0.58390033  1
  P  P30  1  0.99952267  0.29741333  0.74954933  1
  P  P31  1  0.29789067  0.00047733  0.74954933  1
  P  P32  1  0.70258667  0.70210933  0.74954933  1
  P  P33  1  0.62934233  0.96383467  0.91723367  1
  P  P34  1  0.03616533  0.66550767  0.91723367  1
  P  P35  1  0.33449233  0.37065767  0.91723367  1
  O  O36  1  0.54412300  0.68284100  0.35412300  1
  O  O37  1  0.13871800  0.45587700  0.35412300  1
  O  O38  1  0.31715900  0.86128200  0.35412300  1
  O  O39  1  0.83621100  0.81712000  0.07390600  1
  O  O40  1  0.34872167  0.86087233  0.47527533  1
  O  O41  1  0.50190800  0.65195600  0.09650700  1
  O  O42  1  0.98090900  0.16378900  0.07390600  1
  O  O43  1  0.15004800  0.49809200  0.09650700  1
  O  O44  1  0.20100133  0.19649367  0.18944067  1
  O  O45  1  0.34804400  0.84995200  0.09650700  1
  O  O46  1  0.48923000  0.32061100  0.25716800  1
  O  O47  1  0.80350633  0.00450767  0.18944067  1
  O  O48  1  0.51215067  0.65127833  0.47527533  1
  O  O49  1  0.18288000  0.01909100  0.07390600  1
  O  O50  1  0.32301733  0.48829567  0.24053967  1
  O  O51  1  0.13912767  0.48784933  0.47527533  1
  O  O52  1  0.51170433  0.83472167  0.24053967  1
  O  O53  1  0.67938900  0.16861900  0.25716800  1
  O  O54  1  0.16527833  0.67698267  0.24053967  1
  O  O55  1  0.99549233  0.79899867  0.18944067  1
  O  O56  1  0.83138100  0.51077000  0.25716800  1
  O  O57  1  0.34203733  0.46833767  0.97926167  1
  O  O58  1  0.53166233  0.87369967  0.97926167  1
  O  O59  1  0.12630033  0.65796267  0.97926167  1
  O  O60  1  0.21078967  0.01617433  0.68745633  1
  O  O61  1  0.80538467  0.78921033  0.68745633  1
  O  O62  1  0.98382567  0.19461533  0.68745633  1
  O  O63  1  0.50287767  0.15045333  0.40723933  1
  O  O64  1  0.01538833  0.19420567  0.80860867  1
  O  O65  1  0.16857467  0.98528933  0.42984033  1
  O  O66  1  0.64757567  0.49712233  0.40723933  1
  O  O67  1  0.81671467  0.83142533  0.42984033  1
  O  O68  1  0.86766800  0.52982700  0.52277400  1
  O  O69  1  0.01471067  0.18328533  0.42984033  1
  O  O70  1  0.15589667  0.65394433  0.59050133  1
  O  O71  1  0.47017300  0.33784100  0.52277400  1
  O  O72  1  0.17881733  0.98461167  0.80860867  1
  O  O73  1  0.84954667  0.35242433  0.40723933  1
  O  O74  1  0.98968400  0.82162900  0.57387300  1
  O  O75  1  0.80579433  0.82118267  0.80860867  1
  O  O76  1  0.17837100  0.16805500  0.57387300  1
  O  O77  1  0.34605567  0.50195233  0.59050133  1
  O  O78  1  0.83194500  0.01031600  0.57387300  1
  O  O79  1  0.66215900  0.13233200  0.52277400  1
  O  O80  1  0.49804767  0.84410333  0.59050133  1
  O  O81  1  0.00870400  0.80167100  0.31259500  1
  O  O82  1  0.19832900  0.20703300  0.31259500  1
  O  O83  1  0.79296700  0.99129600  0.31259500  1
  O  O84  1  0.87745633  0.34950767  0.02078967  1
  O  O85  1  0.47205133  0.12254367  0.02078967  1
  O  O86  1  0.65049233  0.52794867  0.02078967  1
  O  O87  1  0.16954433  0.48378667  0.74057267  1
  O  O88  1  0.68205500  0.52753900  0.14194200  1
  O  O89  1  0.83524133  0.31862267  0.76317367  1
  O  O90  1  0.31424233  0.83045567  0.74057267  1
  O  O91  1  0.48338133  0.16475867  0.76317367  1
  O  O92  1  0.53433467  0.86316033  0.85610733  1
  O  O93  1  0.68137733  0.51661867  0.76317367  1
  O  O94  1  0.82256333  0.98727767  0.92383467  1
  O  O95  1  0.13683967  0.67117433  0.85610733  1
  O  O96  1  0.84548400  0.31794500  0.14194200  1
  O  O97  1  0.51621333  0.68575767  0.74057267  1
  O  O98  1  0.65635067  0.15496233  0.90720633  1
  O  O99  1  0.47246100  0.15451600  0.14194200  1
  O  O100  1  0.84503767  0.50138833  0.90720633  1
  O  O101  1  0.01272233  0.83528567  0.92383467  1
  O  O102  1  0.49861167  0.34364933  0.90720633  1
  O  O103  1  0.32882567  0.46566533  0.85610733  1
  O  O104  1  0.16471433  0.17743667  0.92383467  1
  O  O105  1  0.67537067  0.13500433  0.64592833  1
  O  O106  1  0.86499567  0.54036633  0.64592833  1
  O  O107  1  0.45963367  0.32462933  0.64592833  1
