# generated using pymatgen
data_Co3(O2F)2
_symmetry_space_group_name_H-M   'P 1'
_cell_length_a   6.87593400
_cell_length_b   6.14427800
_cell_length_c   8.78224711
_cell_angle_alpha   90.00000000
_cell_angle_beta   90.67148318
_cell_angle_gamma   90.00000000
_symmetry_Int_Tables_number   1
_chemical_formula_structural   Co3(O2F)2
_chemical_formula_sum   'Co12 O16 F8'
_cell_volume   371.00382219
_cell_formula_units_Z   4
loop_
 _symmetry_equiv_pos_site_id
 _symmetry_equiv_pos_as_xyz
  1  'x, y, z'
loop_
 _atom_site_type_symbol
 _atom_site_label
 _atom_site_symmetry_multiplicity
 _atom_site_fract_x
 _atom_site_fract_y
 _atom_site_fract_z
 _atom_site_occupancy
  Co  Co0  1  0.99875500  0.00000000  0.82572300  1
  Co  Co1  1  0.00000000  0.00000000  0.50000000  1
  Co  Co2  1  0.00124500  0.00000000  0.17427700  1
  Co  Co3  1  0.53597600  0.00000000  0.66584700  1
  Co  Co4  1  0.50000000  0.00000000  0.00000000  1
  Co  Co5  1  0.46402400  0.00000000  0.33415300  1
  Co  Co6  1  0.49875500  0.50000000  0.82572300  1
  Co  Co7  1  0.50000000  0.50000000  0.50000000  1
  Co  Co8  1  0.50124500  0.50000000  0.17427700  1
  Co  Co9  1  0.03597600  0.50000000  0.66584700  1
  Co  Co10  1  0.00000000  0.50000000  0.00000000  1
  Co  Co11  1  0.96402400  0.50000000  0.33415300  1
  O  O12  1  0.17902900  0.00000000  0.33988200  1
  O  O13  1  0.50000000  0.19075800  0.50000000  1
  O  O14  1  0.50815400  0.19423800  0.83021700  1
  O  O15  1  0.49184600  0.19423800  0.16978300  1
  O  O16  1  0.49184600  0.80576200  0.16978300  1
  O  O17  1  0.50815400  0.80576200  0.83021700  1
  O  O18  1  0.50000000  0.80924200  0.50000000  1
  O  O19  1  0.82097100  0.00000000  0.66011800  1
  O  O20  1  0.67902900  0.50000000  0.33988200  1
  O  O21  1  0.00000000  0.69075800  0.50000000  1
  O  O22  1  0.00815400  0.69423800  0.83021700  1
  O  O23  1  0.99184600  0.69423800  0.16978300  1
  O  O24  1  0.99184600  0.30576200  0.16978300  1
  O  O25  1  0.00815400  0.30576200  0.83021700  1
  O  O26  1  0.00000000  0.30924200  0.50000000  1
  O  O27  1  0.32097100  0.50000000  0.66011800  1
  F  F28  1  0.20753300  0.00000000  0.66160800  1
  F  F29  1  0.18916200  0.00000000  0.99289900  1
  F  F30  1  0.81083800  0.00000000  0.00710100  1
  F  F31  1  0.79246700  0.00000000  0.33839200  1
  F  F32  1  0.70753300  0.50000000  0.66160800  1
  F  F33  1  0.68916200  0.50000000  0.99289900  1
  F  F34  1  0.31083800  0.50000000  0.00710100  1
  F  F35  1  0.29246700  0.50000000  0.33839200  1
