# generated using pymatgen
data_LiMn2(PO4)2
_symmetry_space_group_name_H-M   'P 1'
_cell_length_a   7.22562467
_cell_length_b   6.93525157
_cell_length_c   7.24162478
_cell_angle_alpha   90.00000000
_cell_angle_beta   91.53004946
_cell_angle_gamma   90.00000000
_symmetry_Int_Tables_number   1
_chemical_formula_structural   LiMn2(PO4)2
_chemical_formula_sum   'Li2 Mn4 P4 O16'
_cell_volume   362.75947504
_cell_formula_units_Z   2
loop_
 _symmetry_equiv_pos_site_id
 _symmetry_equiv_pos_as_xyz
  1  'x, y, z'
loop_
 _atom_site_type_symbol
 _atom_site_label
 _atom_site_symmetry_multiplicity
 _atom_site_fract_x
 _atom_site_fract_y
 _atom_site_fract_z
 _atom_site_occupancy
  Li  Li0  1  0.50000000  0.99442300  0.00000000  1
  Li  Li1  1  0.00000000  0.49442300  0.00000000  1
  Mn  Mn2  1  0.50000000  0.45558700  0.00000000  1
  Mn  Mn3  1  0.50000000  0.03676950  0.50000000  1
  Mn  Mn4  1  0.00000000  0.95558700  0.00000000  1
  Mn  Mn5  1  0.00000000  0.53676950  0.50000000  1
  P  P6  1  0.73843850  0.74902950  0.75545700  1
  P  P7  1  0.26156150  0.74902950  0.24454300  1
  P  P8  1  0.23843850  0.24902950  0.75545700  1
  P  P9  1  0.76156150  0.24902950  0.24454300  1
  O  O10  1  0.42937600  0.14282200  0.76752400  1
  O  O11  1  0.74789050  0.89914250  0.92219300  1
  O  O12  1  0.28563350  0.84992050  0.43050900  1
  O  O13  1  0.57177050  0.61569350  0.79097400  1
  O  O14  1  0.42822950  0.61569350  0.20902600  1
  O  O15  1  0.71436650  0.84992050  0.56949100  1
  O  O16  1  0.25210950  0.89914250  0.07780700  1
  O  O17  1  0.57062400  0.14282200  0.23247600  1
  O  O18  1  0.92937600  0.64282200  0.76752400  1
  O  O19  1  0.24789050  0.39914250  0.92219300  1
  O  O20  1  0.78563350  0.34992050  0.43050900  1
  O  O21  1  0.07177050  0.11569350  0.79097400  1
  O  O22  1  0.92822950  0.11569350  0.20902600  1
  O  O23  1  0.21436650  0.34992050  0.56949100  1
  O  O24  1  0.75210950  0.39914250  0.07780700  1
  O  O25  1  0.07062400  0.64282200  0.23247600  1
