# generated using pymatgen
data_Li5Cr2Cu3O10
_symmetry_space_group_name_H-M   'P 1'
_cell_length_a   5.05218613
_cell_length_b   5.45366737
_cell_length_c   7.62333027
_cell_angle_alpha   103.92253657
_cell_angle_beta   102.62495300
_cell_angle_gamma   105.66764958
_symmetry_Int_Tables_number   1
_chemical_formula_structural   Li5Cr2Cu3O10
_chemical_formula_sum   'Li5 Cr2 Cu3 O10'
_cell_volume   187.04635173
_cell_formula_units_Z   1
loop_
 _symmetry_equiv_pos_site_id
 _symmetry_equiv_pos_as_xyz
  1  'x, y, z'
loop_
 _atom_site_type_symbol
 _atom_site_label
 _atom_site_symmetry_multiplicity
 _atom_site_fract_x
 _atom_site_fract_y
 _atom_site_fract_z
 _atom_site_occupancy
  Li  Li0  1  0.50000000  0.50000000  0.50000000  1
  Li  Li1  1  0.20283550  0.89659600  0.38995000  1
  Li  Li2  1  0.79716450  0.10340400  0.61005000  1
  Li  Li3  1  0.40248800  0.29700200  0.79650500  1
  Li  Li4  1  0.59751200  0.70299800  0.20349500  1
  Cr  Cr5  1  0.10837700  0.67318700  0.69348200  1
  Cr  Cr6  1  0.89162300  0.32681300  0.30651800  1
  Cu  Cu7  1  0.00000000  0.50000000  0.00000000  1
  Cu  Cu8  1  0.70027900  0.89248900  0.90212650  1
  Cu  Cu9  1  0.29972100  0.10751100  0.09787350  1
  O  O10  1  0.05975500  0.02063100  0.83727450  1
  O  O11  1  0.94024500  0.97936900  0.16272550  1
  O  O12  1  0.35019450  0.66947500  0.93519150  1
  O  O13  1  0.64980550  0.33052500  0.06480850  1
  O  O14  1  0.13403250  0.33913400  0.55164950  1
  O  O15  1  0.86596750  0.66086600  0.44835050  1
  O  O16  1  0.21128950  0.52137700  0.24363100  1
  O  O17  1  0.78871050  0.47862300  0.75636900  1
  O  O18  1  0.45212500  0.88282600  0.66710600  1
  O  O19  1  0.54787500  0.11717400  0.33289400  1
