# generated using pymatgen
data_K2FeH2OF5
_symmetry_space_group_name_H-M   'P 1'
_cell_length_a   9.97612062
_cell_length_b   8.02883533
_cell_length_c   7.94879299
_cell_angle_alpha   90.00000000
_cell_angle_beta   96.61400102
_cell_angle_gamma   90.00000000
_symmetry_Int_Tables_number   1
_chemical_formula_structural   K2FeH2OF5
_chemical_formula_sum   'K8 Fe4 H8 O4 F20'
_cell_volume   632.43425662
_cell_formula_units_Z   4
loop_
 _symmetry_equiv_pos_site_id
 _symmetry_equiv_pos_as_xyz
  1  'x, y, z'
loop_
 _atom_site_type_symbol
 _atom_site_label
 _atom_site_symmetry_multiplicity
 _atom_site_fract_x
 _atom_site_fract_y
 _atom_site_fract_z
 _atom_site_occupancy
  K  K0  1  0.20256650  0.49903150  0.03718400  1
  K  K1  1  0.79743350  0.49903150  0.46281600  1
  K  K2  1  0.79743350  0.50096850  0.96281600  1
  K  K3  1  0.20256650  0.50096850  0.53718400  1
  K  K4  1  0.70256650  0.99903150  0.03718400  1
  K  K5  1  0.29743350  0.99903150  0.46281600  1
  K  K6  1  0.29743350  0.00096850  0.96281600  1
  K  K7  1  0.70256650  0.00096850  0.53718400  1
  Fe  Fe8  1  0.00000000  0.20318450  0.25000000  1
  Fe  Fe9  1  0.00000000  0.79681550  0.75000000  1
  Fe  Fe10  1  0.50000000  0.70318450  0.25000000  1
  Fe  Fe11  1  0.50000000  0.29681550  0.75000000  1
  H  H12  1  0.02716925  0.87645475  0.15401600  1
  H  H13  1  0.97283075  0.87645475  0.34598400  1
  H  H14  1  0.97283075  0.12354525  0.84598400  1
  H  H15  1  0.02716925  0.12354525  0.65401600  1
  H  H16  1  0.52716925  0.37645475  0.15401600  1
  H  H17  1  0.47283075  0.37645475  0.34598400  1
  H  H18  1  0.47283075  0.62354525  0.84598400  1
  H  H19  1  0.52716925  0.62354525  0.65401600  1
  O  O20  1  0.00000000  0.94485400  0.25000000  1
  O  O21  1  0.00000000  0.05514600  0.75000000  1
  O  O22  1  0.50000000  0.44485400  0.25000000  1
  O  O23  1  0.50000000  0.55514600  0.75000000  1
  F  F24  1  0.00000000  0.44561975  0.25000000  1
  F  F25  1  0.00000000  0.55438025  0.75000000  1
  F  F26  1  0.92549600  0.20354000  0.00875500  1
  F  F27  1  0.07450400  0.20354000  0.49124500  1
  F  F28  1  0.07450400  0.79646000  0.99124500  1
  F  F29  1  0.92549600  0.79646000  0.50875500  1
  F  F30  1  0.81746600  0.19573500  0.31273200  1
  F  F31  1  0.18253400  0.19573500  0.18726800  1
  F  F32  1  0.18253400  0.80426500  0.68726800  1
  F  F33  1  0.81746600  0.80426500  0.81273200  1
  F  F34  1  0.50000000  0.94561975  0.25000000  1
  F  F35  1  0.50000000  0.05438025  0.75000000  1
  F  F36  1  0.42549600  0.70354000  0.00875500  1
  F  F37  1  0.57450400  0.70354000  0.49124500  1
  F  F38  1  0.57450400  0.29646000  0.99124500  1
  F  F39  1  0.42549600  0.29646000  0.50875500  1
  F  F40  1  0.31746600  0.69573500  0.31273200  1
  F  F41  1  0.68253400  0.69573500  0.18726800  1
  F  F42  1  0.68253400  0.30426500  0.68726800  1
  F  F43  1  0.31746600  0.30426500  0.81273200  1
