# generated using pymatgen
data_LiMn2(PO4)2
_symmetry_space_group_name_H-M   'P 1'
_cell_length_a   8.49905816
_cell_length_b   5.35011918
_cell_length_c   8.53177060
_cell_angle_alpha   90.00000000
_cell_angle_beta   109.08560529
_cell_angle_gamma   90.00000000
_symmetry_Int_Tables_number   1
_chemical_formula_structural   LiMn2(PO4)2
_chemical_formula_sum   'Li2 Mn4 P4 O16'
_cell_volume   366.62284579
_cell_formula_units_Z   2
loop_
 _symmetry_equiv_pos_site_id
 _symmetry_equiv_pos_as_xyz
  1  'x, y, z'
loop_
 _atom_site_type_symbol
 _atom_site_label
 _atom_site_symmetry_multiplicity
 _atom_site_fract_x
 _atom_site_fract_y
 _atom_site_fract_z
 _atom_site_occupancy
  Li  Li0  1  0.29625600  0.83444750  0.51390500  1
  Li  Li1  1  0.79625600  0.16555250  0.51390500  1
  Mn  Mn2  1  0.70621000  0.18541550  0.86423500  1
  Mn  Mn3  1  0.39065600  0.33345550  0.37784200  1
  Mn  Mn4  1  0.20621000  0.81458450  0.86423500  1
  Mn  Mn5  1  0.89065600  0.66654450  0.37784200  1
  P  P6  1  0.01061400  0.15718950  0.25690300  1
  P  P7  1  0.51061400  0.84281050  0.25690300  1
  P  P8  1  0.32397600  0.31772750  0.72770500  1
  P  P9  1  0.82397600  0.68227250  0.72770500  1
  O  O10  1  0.06448800  0.89516150  0.33568200  1
  O  O11  1  0.56448800  0.10483850  0.33568200  1
  O  O12  1  0.18714100  0.16250250  0.76150400  1
  O  O13  1  0.68714100  0.83749750  0.76150400  1
  O  O14  1  0.26395800  0.59211950  0.68016700  1
  O  O15  1  0.76395800  0.40788050  0.68016700  1
  O  O16  1  0.16407300  0.30020950  0.23924000  1
  O  O17  1  0.66407300  0.69979050  0.23924000  1
  O  O18  1  0.36606700  0.18941950  0.57740200  1
  O  O19  1  0.86606700  0.81058050  0.57740200  1
  O  O20  1  0.48824200  0.31391450  0.87427400  1
  O  O21  1  0.98824200  0.68608550  0.87427400  1
  O  O22  1  0.43604600  0.69797950  0.37558600  1
  O  O23  1  0.93604600  0.30202050  0.37558600  1
  O  O24  1  0.38500100  0.85559450  0.08292900  1
  O  O25  1  0.88500100  0.14440550  0.08292900  1
