# generated using pymatgen
data_Mn3CrO8
_symmetry_space_group_name_H-M   'P 1'
_cell_length_a   5.83638826
_cell_length_b   5.83638826
_cell_length_c   14.31344795
_cell_angle_alpha   90.00000000
_cell_angle_beta   90.00000000
_cell_angle_gamma   120.00000000
_symmetry_Int_Tables_number   1
_chemical_formula_structural   Mn3CrO8
_chemical_formula_sum   'Mn9 Cr3 O24'
_cell_volume   422.24376463
_cell_formula_units_Z   3
loop_
 _symmetry_equiv_pos_site_id
 _symmetry_equiv_pos_as_xyz
  1  'x, y, z'
loop_
 _atom_site_type_symbol
 _atom_site_label
 _atom_site_symmetry_multiplicity
 _atom_site_fract_x
 _atom_site_fract_y
 _atom_site_fract_z
 _atom_site_occupancy
  Mn  Mn0  1  0.50000000  0.50000000  0.00000000  1
  Mn  Mn1  1  0.50000000  0.00000000  0.00000000  1
  Mn  Mn2  1  0.00000000  0.50000000  0.00000000  1
  Mn  Mn3  1  0.16666667  0.83333333  0.33333333  1
  Mn  Mn4  1  0.16666667  0.33333333  0.33333333  1
  Mn  Mn5  1  0.66666667  0.83333333  0.33333333  1
  Mn  Mn6  1  0.83333333  0.16666667  0.66666667  1
  Mn  Mn7  1  0.83333333  0.66666667  0.66666667  1
  Mn  Mn8  1  0.33333333  0.16666667  0.66666667  1
  Cr  Cr9  1  0.33333333  0.66666667  0.16666667  1
  Cr  Cr10  1  1.00000000  1.00000000  0.50000000  1
  Cr  Cr11  1  0.66666667  0.33333333  0.83333333  1
  O  O12  1  0.66666667  0.33333333  0.06756633  1
  O  O13  1  0.47931333  0.52068667  0.25571267  1
  O  O14  1  0.47931333  0.95862667  0.25571267  1
  O  O15  1  0.04137333  0.52068667  0.25571267  1
  O  O16  1  0.62529333  0.81264667  0.07762067  1
  O  O17  1  0.18735333  0.37470667  0.07762067  1
  O  O18  1  0.00000000  0.00000000  0.26576700  1
  O  O19  1  0.18735333  0.81264667  0.07762067  1
  O  O20  1  0.33333333  0.66666667  0.40089967  1
  O  O21  1  0.14598000  0.85402000  0.58904600  1
  O  O22  1  0.14598000  0.29196000  0.58904600  1
  O  O23  1  0.70804000  0.85402000  0.58904600  1
  O  O24  1  0.29196000  0.14598000  0.41095400  1
  O  O25  1  0.85402000  0.70804000  0.41095400  1
  O  O26  1  0.66666667  0.33333333  0.59910033  1
  O  O27  1  0.85402000  0.14598000  0.41095400  1
  O  O28  1  0.00000000  0.00000000  0.73423300  1
  O  O29  1  0.81264667  0.18735333  0.92237933  1
  O  O30  1  0.81264667  0.62529333  0.92237933  1
  O  O31  1  0.37470667  0.18735333  0.92237933  1
  O  O32  1  0.95862667  0.47931333  0.74428733  1
  O  O33  1  0.52068667  0.04137333  0.74428733  1
  O  O34  1  0.33333333  0.66666667  0.93243367  1
  O  O35  1  0.52068667  0.47931333  0.74428733  1
