# generated using pymatgen
data_Fe3Co2Sn(PO4)6
_symmetry_space_group_name_H-M   'P 1'
_cell_length_a   8.68829248
_cell_length_b   8.68829248
_cell_length_c   20.63909036
_cell_angle_alpha   90.00000000
_cell_angle_beta   90.00000000
_cell_angle_gamma   120.00000000
_symmetry_Int_Tables_number   1
_chemical_formula_structural   Fe3Co2Sn(PO4)6
_chemical_formula_sum   'Fe9 Co6 Sn3 P18 O72'
_cell_volume   1349.24261483
_cell_formula_units_Z   3
loop_
 _symmetry_equiv_pos_site_id
 _symmetry_equiv_pos_as_xyz
  1  'x, y, z'
loop_
 _atom_site_type_symbol
 _atom_site_label
 _atom_site_symmetry_multiplicity
 _atom_site_fract_x
 _atom_site_fract_y
 _atom_site_fract_z
 _atom_site_occupancy
  Fe  Fe0  1  0.33333333  0.66666667  0.31258767  1
  Fe  Fe1  1  0.33333333  0.66666667  0.52045167  1
  Fe  Fe2  1  0.33333333  0.66666667  0.02232667  1
  Fe  Fe3  1  0.00000000  0.00000000  0.64592100  1
  Fe  Fe4  1  0.00000000  0.00000000  0.85378500  1
  Fe  Fe5  1  0.00000000  0.00000000  0.35566000  1
  Fe  Fe6  1  0.66666667  0.33333333  0.97925433  1
  Fe  Fe7  1  0.66666667  0.33333333  0.18711833  1
  Fe  Fe8  1  0.66666667  0.33333333  0.68899333  1
  Co  Co9  1  0.33333333  0.66666667  0.66100067  1
  Co  Co10  1  0.33333333  0.66666667  0.16752167  1
  Co  Co11  1  0.00000000  0.00000000  0.99433400  1
  Co  Co12  1  0.00000000  0.00000000  0.50085500  1
  Co  Co13  1  0.66666667  0.33333333  0.32766733  1
  Co  Co14  1  0.66666667  0.33333333  0.83418833  1
  Sn  Sn15  1  0.33333333  0.66666667  0.81013767  1
  Sn  Sn16  1  0.00000000  0.00000000  0.14347100  1
  Sn  Sn17  1  0.66666667  0.33333333  0.47680433  1
  P  P18  1  0.00178200  0.30023500  0.25125700  1
  P  P19  1  0.69976500  0.70154700  0.25125700  1
  P  P20  1  0.29845300  0.99821800  0.25125700  1
  P  P21  1  0.37395933  0.33775067  0.08368367  1
  P  P22  1  0.96379133  0.62604067  0.08368367  1
  P  P23  1  0.66224933  0.03620867  0.08368367  1
  P  P24  1  0.66844867  0.63356833  0.58459033  1
  P  P25  1  0.36643167  0.03488033  0.58459033  1
  P  P26  1  0.96511967  0.33155133  0.58459033  1
  P  P27  1  0.04062600  0.67108400  0.41701700  1
  P  P28  1  0.63045800  0.95937400  0.41701700  1
  P  P29  1  0.32891600  0.36954200  0.41701700  1
  P  P30  1  0.33511533  0.96690167  0.91792367  1
  P  P31  1  0.03309833  0.36821367  0.91792367  1
  P  P32  1  0.63178633  0.66488467  0.91792367  1
  P  P33  1  0.70729267  0.00441733  0.75035033  1
  P  P34  1  0.29712467  0.29270733  0.75035033  1
  P  P35  1  0.99558267  0.70287533  0.75035033  1
  O  O36  1  0.13289133  0.47523267  0.97707567  1
  O  O37  1  0.52476733  0.65765867  0.97707567  1
  O  O38  1  0.34234133  0.86710867  0.97707567  1
  O  O39  1  0.83395800  0.32168300  0.25956600  1
  O  O40  1  0.99351700  0.20218000  0.18806600  1
  O  O41  1  0.16670667  0.48954233  0.24149633  1
  O  O42  1  0.67831700  0.51227500  0.25956600  1
  O  O43  1  0.51045767  0.67716433  0.24149633  1
  O  O44  1  0.46452867  0.32470833  0.14492033  1
  O  O45  1  0.32283567  0.83329333  0.24149633  1
  O  O46  1  0.18180967  0.16834533  0.07316433  1
  O  O47  1  0.86017967  0.53547133  0.14492033  1
  O  O48  1  0.79782000  0.79133700  0.18806600  1
  O  O49  1  0.48772500  0.16604200  0.25956600  1
  O  O50  1  0.34753500  0.50166400  0.09344600  1
  O  O51  1  0.20866300  0.00648300  0.18806600  1
  O  O52  1  0.15412900  0.65246500  0.09344600  1
  O  O53  1  0.98653567  0.81819033  0.07316433  1
  O  O54  1  0.49833600  0.84587100  0.09344600  1
  O  O55  1  0.67529167  0.13982033  0.14492033  1
  O  O56  1  0.83165467  0.01346433  0.07316433  1
  O  O57  1  0.32168133  0.46329867  0.35597967  1
  O  O58  1  0.14161733  0.67831867  0.35597967  1
  O  O59  1  0.53670133  0.85838267  0.35597967  1
  O  O60  1  0.79955800  0.80856600  0.31040900  1
  O  O61  1  0.19143400  0.99099200  0.31040900  1
  O  O62  1  0.00900800  0.20044200  0.31040900  1
  O  O63  1  0.50062467  0.65501633  0.59289933  1
  O  O64  1  0.66018367  0.53551333  0.52139933  1
  O  O65  1  0.83337333  0.82287567  0.57482967  1
  O  O66  1  0.34498367  0.84560833  0.59289933  1
  O  O67  1  0.17712433  0.01049767  0.57482967  1
  O  O68  1  0.13119533  0.65804167  0.47825367  1
  O  O69  1  0.98950233  0.16662667  0.57482967  1
  O  O70  1  0.84847633  0.50167867  0.40649767  1
  O  O71  1  0.52684633  0.86880467  0.47825367  1
  O  O72  1  0.46448667  0.12467033  0.52139933  1
  O  O73  1  0.15439167  0.49937533  0.59289933  1
  O  O74  1  0.01420167  0.83499733  0.42677933  1
  O  O75  1  0.87532967  0.33981633  0.52139933  1
  O  O76  1  0.82079567  0.98579833  0.42677933  1
  O  O77  1  0.65320233  0.15152367  0.40649767  1
  O  O78  1  0.16500267  0.17920433  0.42677933  1
  O  O79  1  0.34195833  0.47315367  0.47825367  1
  O  O80  1  0.49832133  0.34679767  0.40649767  1
  O  O81  1  0.98834800  0.79663200  0.68931300  1
  O  O82  1  0.80828400  0.01165200  0.68931300  1
  O  O83  1  0.20336800  0.19171600  0.68931300  1
  O  O84  1  0.46622467  0.14189933  0.64374233  1
  O  O85  1  0.85810067  0.32432533  0.64374233  1
  O  O86  1  0.67567467  0.53377533  0.64374233  1
  O  O87  1  0.16729133  0.98834967  0.92623267  1
  O  O88  1  0.32685033  0.86884667  0.85473267  1
  O  O89  1  0.50004000  0.15620900  0.90816300  1
  O  O90  1  0.01165033  0.17894167  0.92623267  1
  O  O91  1  0.84379100  0.34383100  0.90816300  1
  O  O92  1  0.79786200  0.99137500  0.81158700  1
  O  O93  1  0.65616900  0.49996000  0.90816300  1
  O  O94  1  0.51514300  0.83501200  0.73983100  1
  O  O95  1  0.19351300  0.20213800  0.81158700  1
  O  O96  1  0.13115333  0.45800367  0.85473267  1
  O  O97  1  0.82105833  0.83270867  0.92623267  1
  O  O98  1  0.68086833  0.16833067  0.76011267  1
  O  O99  1  0.54199633  0.67314967  0.85473267  1
  O  O100  1  0.48746233  0.31913167  0.76011267  1
  O  O101  1  0.31986900  0.48485700  0.73983100  1
  O  O102  1  0.83166933  0.51253767  0.76011267  1
  O  O103  1  0.00862500  0.80648700  0.81158700  1
  O  O104  1  0.16498800  0.68013100  0.73983100  1
  O  O105  1  0.65501467  0.12996533  0.02264633  1
  O  O106  1  0.47495067  0.34498533  0.02264633  1
  O  O107  1  0.87003467  0.52504933  0.02264633  1
