# generated using pymatgen
data_Li4Cr5BiO12
_symmetry_space_group_name_H-M   'P 1'
_cell_length_a   5.26528124
_cell_length_b   9.14746381
_cell_length_c   10.14646173
_cell_angle_alpha   90.00000000
_cell_angle_beta   97.28784437
_cell_angle_gamma   90.00000000
_symmetry_Int_Tables_number   1
_chemical_formula_structural   Li4Cr5BiO12
_chemical_formula_sum   'Li8 Cr10 Bi2 O24'
_cell_volume   484.74590103
_cell_formula_units_Z   2
loop_
 _symmetry_equiv_pos_site_id
 _symmetry_equiv_pos_as_xyz
  1  'x, y, z'
loop_
 _atom_site_type_symbol
 _atom_site_label
 _atom_site_symmetry_multiplicity
 _atom_site_fract_x
 _atom_site_fract_y
 _atom_site_fract_z
 _atom_site_occupancy
  Li  Li0  1  0.61421100  0.83166800  0.77480200  1
  Li  Li1  1  0.38578900  0.83166800  0.22519800  1
  Li  Li2  1  0.11421100  0.66833200  0.77480200  1
  Li  Li3  1  0.88578900  0.66833200  0.22519800  1
  Li  Li4  1  0.11421100  0.33166800  0.77480200  1
  Li  Li5  1  0.88578900  0.33166800  0.22519800  1
  Li  Li6  1  0.61421100  0.16833200  0.77480200  1
  Li  Li7  1  0.38578900  0.16833200  0.22519800  1
  Cr  Cr8  1  0.50000000  0.66398950  0.00000000  1
  Cr  Cr9  1  0.00000000  0.66625150  0.50000000  1
  Cr  Cr10  1  0.50000000  0.83374850  0.50000000  1
  Cr  Cr11  1  0.00000000  0.83601050  0.00000000  1
  Cr  Cr12  1  0.00000000  0.50000000  0.00000000  1
  Cr  Cr13  1  0.00000000  0.16398950  0.00000000  1
  Cr  Cr14  1  0.50000000  0.16625150  0.50000000  1
  Cr  Cr15  1  0.00000000  0.33374850  0.50000000  1
  Cr  Cr16  1  0.50000000  0.33601050  0.00000000  1
  Cr  Cr17  1  0.50000000  0.00000000  0.00000000  1
  Bi  Bi18  1  0.50000000  0.50000000  0.50000000  1
  Bi  Bi19  1  0.00000000  0.00000000  0.50000000  1
  O  O20  1  0.65545500  0.68191000  0.38960100  1
  O  O21  1  0.34454500  0.68191000  0.61039900  1
  O  O22  1  0.68634450  0.82796450  0.10263200  1
  O  O23  1  0.18634450  0.67203550  0.10263200  1
  O  O24  1  0.31365550  0.82796450  0.89736800  1
  O  O25  1  0.29800250  0.50000000  0.89704100  1
  O  O26  1  0.81365550  0.67203550  0.89736800  1
  O  O27  1  0.15545500  0.81809000  0.38960100  1
  O  O28  1  0.60762050  0.00000000  0.39075100  1
  O  O29  1  0.84454500  0.81809000  0.61039900  1
  O  O30  1  0.89237950  0.50000000  0.60924900  1
  O  O31  1  0.20199750  0.00000000  0.10295900  1
  O  O32  1  0.15545500  0.18191000  0.38960100  1
  O  O33  1  0.84454500  0.18191000  0.61039900  1
  O  O34  1  0.18634450  0.32796450  0.10263200  1
  O  O35  1  0.68634450  0.17203550  0.10263200  1
  O  O36  1  0.81365550  0.32796450  0.89736800  1
  O  O37  1  0.79800250  0.00000000  0.89704100  1
  O  O38  1  0.31365550  0.17203550  0.89736800  1
  O  O39  1  0.65545500  0.31809000  0.38960100  1
  O  O40  1  0.10762050  0.50000000  0.39075100  1
  O  O41  1  0.34454500  0.31809000  0.61039900  1
  O  O42  1  0.39237950  0.00000000  0.60924900  1
  O  O43  1  0.70199750  0.50000000  0.10295900  1
