# generated using pymatgen
data_Na3VAsCO7
_symmetry_space_group_name_H-M   'P 1'
_cell_length_a   5.30986427
_cell_length_b   7.00106600
_cell_length_c   9.16382658
_cell_angle_alpha   90.00000000
_cell_angle_beta   91.48156326
_cell_angle_gamma   90.00000000
_symmetry_Int_Tables_number   1
_chemical_formula_structural   Na3VAsCO7
_chemical_formula_sum   'Na6 V2 As2 C2 O14'
_cell_volume   340.54871290
_cell_formula_units_Z   2
loop_
 _symmetry_equiv_pos_site_id
 _symmetry_equiv_pos_as_xyz
  1  'x, y, z'
loop_
 _atom_site_type_symbol
 _atom_site_label
 _atom_site_symmetry_multiplicity
 _atom_site_fract_x
 _atom_site_fract_y
 _atom_site_fract_z
 _atom_site_occupancy
  Na  Na0  1  0.73401675  0.75000000  0.08049400  1
  Na  Na1  1  0.26598325  0.25000000  0.91950600  1
  Na  Na2  1  0.24842475  0.99175950  0.26316500  1
  Na  Na3  1  0.24842475  0.50824050  0.26316500  1
  Na  Na4  1  0.75157525  0.49175950  0.73683500  1
  Na  Na5  1  0.75157525  0.00824050  0.73683500  1
  V  V6  1  0.71939825  0.25000000  0.33754800  1
  V  V7  1  0.28060175  0.75000000  0.66245200  1
  As  As8  1  0.79229475  0.75000000  0.41445300  1
  As  As9  1  0.20770525  0.25000000  0.58554700  1
  C  C10  1  0.78240675  0.25000000  0.05477200  1
  C  C11  1  0.21759325  0.75000000  0.94522800  1
  O  O12  1  0.19386175  0.75000000  0.08498200  1
  O  O13  1  0.80613825  0.25000000  0.91501800  1
  O  O14  1  0.56021275  0.25000000  0.11301500  1
  O  O15  1  0.43978725  0.75000000  0.88698500  1
  O  O16  1  0.97988375  0.25000000  0.14349500  1
  O  O17  1  0.02011625  0.75000000  0.85650500  1
  O  O18  1  0.11636825  0.75000000  0.44289900  1
  O  O19  1  0.88363175  0.25000000  0.55710100  1
  O  O20  1  0.34355875  0.25000000  0.41757400  1
  O  O21  1  0.65644125  0.75000000  0.58242600  1
  O  O22  1  0.70986025  0.94273450  0.30512000  1
  O  O23  1  0.70986025  0.55726550  0.30512000  1
  O  O24  1  0.29013975  0.44273450  0.69488000  1
  O  O25  1  0.29013975  0.05726550  0.69488000  1
