# generated using pymatgen
data_MnOF
_symmetry_space_group_name_H-M   'P 1'
_cell_length_a   3.72463500
_cell_length_b   5.45922200
_cell_length_c   8.93638600
_cell_angle_alpha   90.00000000
_cell_angle_beta   90.00000000
_cell_angle_gamma   90.00000000
_symmetry_Int_Tables_number   1
_chemical_formula_structural   MnOF
_chemical_formula_sum   'Mn4 O4 F4'
_cell_volume   181.70898196
_cell_formula_units_Z   4
loop_
 _symmetry_equiv_pos_site_id
 _symmetry_equiv_pos_as_xyz
  1  'x, y, z'
loop_
 _atom_site_type_symbol
 _atom_site_label
 _atom_site_symmetry_multiplicity
 _atom_site_fract_x
 _atom_site_fract_y
 _atom_site_fract_z
 _atom_site_occupancy
  Mn  Mn0  1  0.75000000  0.86702200  0.90469250  1
  Mn  Mn1  1  0.75000000  0.36702200  0.59530750  1
  Mn  Mn2  1  0.25000000  0.63297800  0.40469250  1
  Mn  Mn3  1  0.25000000  0.13297800  0.09530750  1
  O  O4  1  0.75000000  0.63899500  0.45893750  1
  O  O5  1  0.25000000  0.86100500  0.95893750  1
  O  O6  1  0.75000000  0.13899500  0.04106250  1
  O  O7  1  0.25000000  0.36100500  0.54106250  1
  F  F8  1  0.75000000  0.56660200  0.79647250  1
  F  F9  1  0.25000000  0.93339800  0.29647250  1
  F  F10  1  0.75000000  0.06660200  0.70352750  1
  F  F11  1  0.25000000  0.43339800  0.20352750  1
