# generated using pymatgen
data_LiFe(Si2O5)3
_symmetry_space_group_name_H-M   'P 1'
_cell_length_a   14.54149800
_cell_length_b   17.13834000
_cell_length_c   10.01759200
_cell_angle_alpha   90.00000000
_cell_angle_beta   90.00000000
_cell_angle_gamma   90.00000000
_symmetry_Int_Tables_number   1
_chemical_formula_structural   LiFe(Si2O5)3
_chemical_formula_sum   'Li8 Fe8 Si48 O120'
_cell_volume   2496.55559620
_cell_formula_units_Z   8
loop_
 _symmetry_equiv_pos_site_id
 _symmetry_equiv_pos_as_xyz
  1  'x, y, z'
loop_
 _atom_site_type_symbol
 _atom_site_label
 _atom_site_symmetry_multiplicity
 _atom_site_fract_x
 _atom_site_fract_y
 _atom_site_fract_z
 _atom_site_occupancy
  Li  Li0  1  0.24906700  0.00000000  0.50000000  1
  Li  Li1  1  0.25093300  0.00000000  0.00000000  1
  Li  Li2  1  0.74906700  0.00000000  0.00000000  1
  Li  Li3  1  0.75093300  0.00000000  0.50000000  1
  Li  Li4  1  0.74906700  0.50000000  0.50000000  1
  Li  Li5  1  0.75093300  0.50000000  0.00000000  1
  Li  Li6  1  0.24906700  0.50000000  0.00000000  1
  Li  Li7  1  0.25093300  0.50000000  0.50000000  1
  Fe  Fe8  1  0.25000000  0.90993800  0.75000000  1
  Fe  Fe9  1  0.25000000  0.09006200  0.25000000  1
  Fe  Fe10  1  0.75000000  0.90993800  0.75000000  1
  Fe  Fe11  1  0.75000000  0.09006200  0.25000000  1
  Fe  Fe12  1  0.75000000  0.40993800  0.75000000  1
  Fe  Fe13  1  0.75000000  0.59006200  0.25000000  1
  Fe  Fe14  1  0.25000000  0.40993800  0.75000000  1
  Fe  Fe15  1  0.25000000  0.59006200  0.25000000  1
  Si  Si16  1  0.39175050  0.63269750  0.99203700  1
  Si  Si17  1  0.39140650  0.68452850  0.45477900  1
  Si  Si18  1  0.10897350  0.93536050  0.30331700  1
  Si  Si19  1  0.60824950  0.63269750  0.99203700  1
  Si  Si20  1  0.39140650  0.81547150  0.95477900  1
  Si  Si21  1  0.60859350  0.68452850  0.45477900  1
  Si  Si22  1  0.39175050  0.86730250  0.49203700  1
  Si  Si23  1  0.10897350  0.06463950  0.69668300  1
  Si  Si24  1  0.39102650  0.93536050  0.19668300  1
  Si  Si25  1  0.60859350  0.81547150  0.95477900  1
  Si  Si26  1  0.60824950  0.86730250  0.49203700  1
  Si  Si27  1  0.39102650  0.06463950  0.80331700  1
  Si  Si28  1  0.60897350  0.93536050  0.19668300  1
  Si  Si29  1  0.39175050  0.13269750  0.50796300  1
  Si  Si30  1  0.39140650  0.18452850  0.04522100  1
  Si  Si31  1  0.60897350  0.06463950  0.80331700  1
  Si  Si32  1  0.89102650  0.93536050  0.30331700  1
  Si  Si33  1  0.60824950  0.13269750  0.50796300  1
  Si  Si34  1  0.39140650  0.31547150  0.54522100  1
  Si  Si35  1  0.60859350  0.18452850  0.04522100  1
  Si  Si36  1  0.39175050  0.36730250  0.00796300  1
  Si  Si37  1  0.89102650  0.06463950  0.69668300  1
  Si  Si38  1  0.60859350  0.31547150  0.54522100  1
  Si  Si39  1  0.60824950  0.36730250  0.00796300  1
  Si  Si40  1  0.89175050  0.13269750  0.99203700  1
  Si  Si41  1  0.89140650  0.18452850  0.45477900  1
  Si  Si42  1  0.60897350  0.43536050  0.30331700  1
  Si  Si43  1  0.10824950  0.13269750  0.99203700  1
  Si  Si44  1  0.89140650  0.31547150  0.95477900  1
  Si  Si45  1  0.10859350  0.18452850  0.45477900  1
  Si  Si46  1  0.89175050  0.36730250  0.49203700  1
  Si  Si47  1  0.60897350  0.56463950  0.69668300  1
  Si  Si48  1  0.89102650  0.43536050  0.19668300  1
  Si  Si49  1  0.10859350  0.31547150  0.95477900  1
  Si  Si50  1  0.10824950  0.36730250  0.49203700  1
  Si  Si51  1  0.89102650  0.56463950  0.80331700  1
  Si  Si52  1  0.10897350  0.43536050  0.19668300  1
  Si  Si53  1  0.89175050  0.63269750  0.50796300  1
  Si  Si54  1  0.89140650  0.68452850  0.04522100  1
  Si  Si55  1  0.10897350  0.56463950  0.80331700  1
  Si  Si56  1  0.39102650  0.43536050  0.30331700  1
  Si  Si57  1  0.10824950  0.63269750  0.50796300  1
  Si  Si58  1  0.89140650  0.81547150  0.54522100  1
  Si  Si59  1  0.10859350  0.68452850  0.04522100  1
  Si  Si60  1  0.89175050  0.86730250  0.00796300  1
  Si  Si61  1  0.39102650  0.56463950  0.69668300  1
  Si  Si62  1  0.10859350  0.81547150  0.54522100  1
  Si  Si63  1  0.10824950  0.86730250  0.00796300  1
  O  O64  1  0.50000000  0.54342900  0.69211300  1
  O  O65  1  0.82747250  0.17149150  0.32361900  1
  O  O66  1  0.50000000  0.61678300  0.02460700  1
  O  O67  1  0.13420400  0.87236700  0.42073700  1
  O  O68  1  0.37245450  0.72617250  0.00438600  1
  O  O69  1  0.13281750  0.89557150  0.16007000  1
  O  O70  1  0.50000000  0.67422100  0.41768500  1
  O  O71  1  0.37245450  0.77382750  0.50438600  1
  O  O72  1  0.17461900  0.91908900  0.91333800  1
  O  O73  1  0.32747250  0.82850850  0.82361900  1
  O  O74  1  0.17268550  0.98967950  0.66140500  1
  O  O75  1  0.36579600  0.87236700  0.07926300  1
  O  O76  1  0.17268550  0.01032050  0.33859500  1
  O  O77  1  0.17252750  0.17149150  0.32361900  1
  O  O78  1  0.36718250  0.89557150  0.33993000  1
  O  O79  1  0.32538100  0.91908900  0.58666200  1
  O  O80  1  0.62754550  0.72617250  0.00438600  1
  O  O81  1  0.50000000  0.82577900  0.91768500  1
  O  O82  1  0.17461900  0.08091100  0.08666200  1
  O  O83  1  0.13281750  0.10442850  0.83993000  1
  O  O84  1  0.62754550  0.77382750  0.50438600  1
  O  O85  1  0.32731450  0.98967950  0.83859500  1
  O  O86  1  0.13420400  0.12763300  0.57926300  1
  O  O87  1  0.50000000  0.88321700  0.52460700  1
  O  O88  1  0.32731450  0.01032050  0.16140500  1
  O  O89  1  0.67252750  0.82850850  0.82361900  1
  O  O90  1  0.50000000  0.95657100  0.19211300  1
  O  O91  1  0.32538100  0.08091100  0.41333800  1
  O  O92  1  0.63420400  0.87236700  0.07926300  1
  O  O93  1  0.63281750  0.89557150  0.33993000  1
  O  O94  1  0.36718250  0.10442850  0.66007000  1
  O  O95  1  0.36579600  0.12763300  0.92073700  1
  O  O96  1  0.67461900  0.91908900  0.58666200  1
  O  O97  1  0.50000000  0.04342900  0.80788700  1
  O  O98  1  0.32747250  0.17149150  0.17638100  1
  O  O99  1  0.67268550  0.98967950  0.83859500  1
  O  O100  1  0.50000000  0.11678300  0.47539300  1
  O  O101  1  0.86579600  0.87236700  0.42073700  1
  O  O102  1  0.67268550  0.01032050  0.16140500  1
  O  O103  1  0.37245450  0.22617250  0.49561400  1
  O  O104  1  0.86718250  0.89557150  0.16007000  1
  O  O105  1  0.82538100  0.91908900  0.91333800  1
  O  O106  1  0.50000000  0.17422100  0.08231500  1
  O  O107  1  0.37245450  0.27382750  0.99561400  1
  O  O108  1  0.67461900  0.08091100  0.41333800  1
  O  O109  1  0.63281750  0.10442850  0.66007000  1
  O  O110  1  0.82747250  0.82850850  0.67638100  1
  O  O111  1  0.82731450  0.98967950  0.66140500  1
  O  O112  1  0.63420400  0.12763300  0.92073700  1
  O  O113  1  0.82731450  0.01032050  0.33859500  1
  O  O114  1  0.67252750  0.17149150  0.17638100  1
  O  O115  1  0.82538100  0.08091100  0.08666200  1
  O  O116  1  0.62754550  0.22617250  0.49561400  1
  O  O117  1  0.50000000  0.32577900  0.58231500  1
  O  O118  1  0.86718250  0.10442850  0.83993000  1
  O  O119  1  0.62754550  0.27382750  0.99561400  1
  O  O120  1  0.86579600  0.12763300  0.57926300  1
  O  O121  1  0.50000000  0.38321700  0.97539300  1
  O  O122  1  0.17252750  0.82850850  0.67638100  1
  O  O123  1  0.50000000  0.45657100  0.30788700  1
  O  O124  1  0.00000000  0.04342900  0.69211300  1
  O  O125  1  0.32747250  0.67149150  0.32361900  1
  O  O126  1  0.00000000  0.11678300  0.02460700  1
  O  O127  1  0.63420400  0.37236700  0.42073700  1
  O  O128  1  0.87245450  0.22617250  0.00438600  1
  O  O129  1  0.63281750  0.39557150  0.16007000  1
  O  O130  1  0.00000000  0.17422100  0.41768500  1
  O  O131  1  0.87245450  0.27382750  0.50438600  1
  O  O132  1  0.67461900  0.41908900  0.91333800  1
  O  O133  1  0.82747250  0.32850850  0.82361900  1
  O  O134  1  0.67268550  0.48967950  0.66140500  1
  O  O135  1  0.86579600  0.37236700  0.07926300  1
  O  O136  1  0.67268550  0.51032050  0.33859500  1
  O  O137  1  0.67252750  0.67149150  0.32361900  1
  O  O138  1  0.86718250  0.39557150  0.33993000  1
  O  O139  1  0.82538100  0.41908900  0.58666200  1
  O  O140  1  0.12754550  0.22617250  0.00438600  1
  O  O141  1  0.00000000  0.32577900  0.91768500  1
  O  O142  1  0.67461900  0.58091100  0.08666200  1
  O  O143  1  0.63281750  0.60442850  0.83993000  1
  O  O144  1  0.12754550  0.27382750  0.50438600  1
  O  O145  1  0.82731450  0.48967950  0.83859500  1
  O  O146  1  0.63420400  0.62763300  0.57926300  1
  O  O147  1  0.00000000  0.38321700  0.52460700  1
  O  O148  1  0.82731450  0.51032050  0.16140500  1
  O  O149  1  0.17252750  0.32850850  0.82361900  1
  O  O150  1  0.00000000  0.45657100  0.19211300  1
  O  O151  1  0.82538100  0.58091100  0.41333800  1
  O  O152  1  0.13420400  0.37236700  0.07926300  1
  O  O153  1  0.13281750  0.39557150  0.33993000  1
  O  O154  1  0.86718250  0.60442850  0.66007000  1
  O  O155  1  0.86579600  0.62763300  0.92073700  1
  O  O156  1  0.17461900  0.41908900  0.58666200  1
  O  O157  1  0.00000000  0.54342900  0.80788700  1
  O  O158  1  0.82747250  0.67149150  0.17638100  1
  O  O159  1  0.17268550  0.48967950  0.83859500  1
  O  O160  1  0.00000000  0.61678300  0.47539300  1
  O  O161  1  0.36579600  0.37236700  0.42073700  1
  O  O162  1  0.17268550  0.51032050  0.16140500  1
  O  O163  1  0.87245450  0.72617250  0.49561400  1
  O  O164  1  0.36718250  0.39557150  0.16007000  1
  O  O165  1  0.32538100  0.41908900  0.91333800  1
  O  O166  1  0.00000000  0.67422100  0.08231500  1
  O  O167  1  0.87245450  0.77382750  0.99561400  1
  O  O168  1  0.17461900  0.58091100  0.41333800  1
  O  O169  1  0.13281750  0.60442850  0.66007000  1
  O  O170  1  0.32747250  0.32850850  0.67638100  1
  O  O171  1  0.32731450  0.48967950  0.66140500  1
  O  O172  1  0.13420400  0.62763300  0.92073700  1
  O  O173  1  0.32731450  0.51032050  0.33859500  1
  O  O174  1  0.17252750  0.67149150  0.17638100  1
  O  O175  1  0.32538100  0.58091100  0.08666200  1
  O  O176  1  0.12754550  0.72617250  0.49561400  1
  O  O177  1  0.00000000  0.82577900  0.58231500  1
  O  O178  1  0.36718250  0.60442850  0.83993000  1
  O  O179  1  0.12754550  0.77382750  0.99561400  1
  O  O180  1  0.36579600  0.62763300  0.57926300  1
  O  O181  1  0.00000000  0.88321700  0.97539300  1
  O  O182  1  0.67252750  0.32850850  0.67638100  1
  O  O183  1  0.00000000  0.95657100  0.30788700  1
