# generated using pymatgen
data_Li3Mn(PO4)2
_symmetry_space_group_name_H-M   'P 1'
_cell_length_a   4.74050493
_cell_length_b   6.05966000
_cell_length_c   10.09973215
_cell_angle_alpha   90.00000000
_cell_angle_beta   92.23856262
_cell_angle_gamma   90.00000000
_symmetry_Int_Tables_number   1
_chemical_formula_structural   Li3Mn(PO4)2
_chemical_formula_sum   'Li6 Mn2 P4 O16'
_cell_volume   289.90196499
_cell_formula_units_Z   2
loop_
 _symmetry_equiv_pos_site_id
 _symmetry_equiv_pos_as_xyz
  1  'x, y, z'
loop_
 _atom_site_type_symbol
 _atom_site_label
 _atom_site_symmetry_multiplicity
 _atom_site_fract_x
 _atom_site_fract_y
 _atom_site_fract_z
 _atom_site_occupancy
  Li  Li0  1  0.00000000  0.00000000  0.50000000  1
  Li  Li1  1  0.00000000  0.50000000  0.50000000  1
  Li  Li2  1  0.47570000  0.75000000  0.71531950  1
  Li  Li3  1  0.52430000  0.25000000  0.28468050  1
  Li  Li4  1  0.50000000  0.00000000  0.00000000  1
  Li  Li5  1  0.50000000  0.50000000  0.00000000  1
  Mn  Mn6  1  0.96978200  0.25000000  0.78326500  1
  Mn  Mn7  1  0.03021800  0.75000000  0.21673500  1
  P  P8  1  0.40507900  0.25000000  0.60369900  1
  P  P9  1  0.59492100  0.75000000  0.39630100  1
  P  P10  1  0.93297100  0.75000000  0.90881350  1
  P  P11  1  0.06702900  0.25000000  0.09118650  1
  O  O12  1  0.69470600  0.75000000  0.54254300  1
  O  O13  1  0.30529400  0.25000000  0.45745700  1
  O  O14  1  0.73826300  0.25000000  0.61677200  1
  O  O15  1  0.26173700  0.75000000  0.38322800  1
  O  O16  1  0.25260400  0.75000000  0.91634250  1
  O  O17  1  0.74739600  0.25000000  0.08365750  1
  O  O18  1  0.19718800  0.25000000  0.94685450  1
  O  O19  1  0.80281200  0.75000000  0.05314550  1
  O  O20  1  0.27351000  0.04699450  0.67384200  1
  O  O21  1  0.27351000  0.45300550  0.67384200  1
  O  O22  1  0.72649000  0.54699450  0.32615800  1
  O  O23  1  0.72649000  0.95300550  0.32615800  1
  O  O24  1  0.79381100  0.54457500  0.83992150  1
  O  O25  1  0.79381100  0.95542500  0.83992150  1
  O  O26  1  0.20618900  0.04457500  0.16007850  1
  O  O27  1  0.20618900  0.45542500  0.16007850  1
