# generated using pymatgen
data_Ti5Mn3O16
_symmetry_space_group_name_H-M   'P 1'
_cell_length_a   10.14238800
_cell_length_b   5.87053000
_cell_length_c   9.06020134
_cell_angle_alpha   90.00000000
_cell_angle_beta   90.69280612
_cell_angle_gamma   90.00000000
_symmetry_Int_Tables_number   1
_chemical_formula_structural   Ti5Mn3O16
_chemical_formula_sum   'Ti10 Mn6 O32'
_cell_volume   539.41576032
_cell_formula_units_Z   2
loop_
 _symmetry_equiv_pos_site_id
 _symmetry_equiv_pos_as_xyz
  1  'x, y, z'
loop_
 _atom_site_type_symbol
 _atom_site_label
 _atom_site_symmetry_multiplicity
 _atom_site_fract_x
 _atom_site_fract_y
 _atom_site_fract_z
 _atom_site_occupancy
  Ti  Ti0  1  0.16324200  0.00000000  0.28556800  1
  Ti  Ti1  1  0.58055450  0.75264550  0.78619100  1
  Ti  Ti2  1  0.66974500  0.00000000  0.50496700  1
  Ti  Ti3  1  0.58055450  0.24735450  0.78619100  1
  Ti  Ti4  1  0.33328200  0.00000000  0.00738200  1
  Ti  Ti5  1  0.66324200  0.50000000  0.28556800  1
  Ti  Ti6  1  0.08055450  0.25264550  0.78619100  1
  Ti  Ti7  1  0.16974500  0.50000000  0.50496700  1
  Ti  Ti8  1  0.08055450  0.74735450  0.78619100  1
  Ti  Ti9  1  0.83328200  0.50000000  0.00738200  1
  Mn  Mn10  1  0.82882400  0.00000000  0.78863800  1
  Mn  Mn11  1  0.41402400  0.75401200  0.28886400  1
  Mn  Mn12  1  0.41402400  0.24598800  0.28886400  1
  Mn  Mn13  1  0.32882400  0.50000000  0.78863800  1
  Mn  Mn14  1  0.91402400  0.25401200  0.28886400  1
  Mn  Mn15  1  0.91402400  0.74598800  0.28886400  1
  O  O16  1  0.58541850  0.75348650  0.39947800  1
  O  O17  1  0.52177900  0.00000000  0.66091700  1
  O  O18  1  0.66959100  0.00000000  0.89985600  1
  O  O19  1  0.99633800  0.00000000  0.68517000  1
  O  O20  1  0.99545800  0.00000000  0.18557400  1
  O  O21  1  0.58541850  0.24651350  0.39947800  1
  O  O22  1  0.74170200  0.78597100  0.66379100  1
  O  O23  1  0.74170200  0.21402900  0.66379100  1
  O  O24  1  0.17119300  0.00000000  0.90032800  1
  O  O25  1  0.83300700  0.00000000  0.39725100  1
  O  O26  1  0.26331750  0.78119950  0.16347700  1
  O  O27  1  0.26331750  0.21880050  0.16347700  1
  O  O28  1  0.33751600  0.00000000  0.39789700  1
  O  O29  1  0.41580250  0.75382450  0.89921200  1
  O  O30  1  0.47817100  0.00000000  0.16872200  1
  O  O31  1  0.41580250  0.24617550  0.89921200  1
  O  O32  1  0.08541850  0.25348650  0.39947800  1
  O  O33  1  0.02177900  0.50000000  0.66091700  1
  O  O34  1  0.16959100  0.50000000  0.89985600  1
  O  O35  1  0.49633800  0.50000000  0.68517000  1
  O  O36  1  0.49545800  0.50000000  0.18557400  1
  O  O37  1  0.08541850  0.74651350  0.39947800  1
  O  O38  1  0.24170200  0.28597100  0.66379100  1
  O  O39  1  0.24170200  0.71402900  0.66379100  1
  O  O40  1  0.67119300  0.50000000  0.90032800  1
  O  O41  1  0.33300700  0.50000000  0.39725100  1
  O  O42  1  0.76331750  0.28119950  0.16347700  1
  O  O43  1  0.76331750  0.71880050  0.16347700  1
  O  O44  1  0.83751600  0.50000000  0.39789700  1
  O  O45  1  0.91580250  0.25382450  0.89921200  1
  O  O46  1  0.97817100  0.50000000  0.16872200  1
  O  O47  1  0.91580250  0.74617550  0.89921200  1
