# generated using pymatgen
data_Ti3Cu2P6WO24
_symmetry_space_group_name_H-M   'P 1'
_cell_length_a   8.69928382
_cell_length_b   8.69928382
_cell_length_c   21.32311954
_cell_angle_alpha   90.00000000
_cell_angle_beta   90.00000000
_cell_angle_gamma   120.00000000
_symmetry_Int_Tables_number   1
_chemical_formula_structural   Ti3Cu2P6WO24
_chemical_formula_sum   'Ti9 Cu6 P18 W3 O72'
_cell_volume   1397.48892284
_cell_formula_units_Z   3
loop_
 _symmetry_equiv_pos_site_id
 _symmetry_equiv_pos_as_xyz
  1  'x, y, z'
loop_
 _atom_site_type_symbol
 _atom_site_label
 _atom_site_symmetry_multiplicity
 _atom_site_fract_x
 _atom_site_fract_y
 _atom_site_fract_z
 _atom_site_occupancy
  Ti  Ti0  1  0.33333333  0.66666667  0.02481067  1
  Ti  Ti1  1  0.00000000  0.00000000  0.14191500  1
  Ti  Ti2  1  0.33333333  0.66666667  0.30886267  1
  Ti  Ti3  1  0.00000000  0.00000000  0.35814400  1
  Ti  Ti4  1  0.66666667  0.33333333  0.47524833  1
  Ti  Ti5  1  0.00000000  0.00000000  0.64219600  1
  Ti  Ti6  1  0.66666667  0.33333333  0.69147733  1
  Ti  Ti7  1  0.33333333  0.66666667  0.80858167  1
  Ti  Ti8  1  0.66666667  0.33333333  0.97552933  1
  Cu  Cu9  1  0.00000000  0.00000000  0.00442100  1
  Cu  Cu10  1  0.33333333  0.66666667  0.16674967  1
  Cu  Cu11  1  0.66666667  0.33333333  0.33775433  1
  Cu  Cu12  1  0.00000000  0.00000000  0.50008300  1
  Cu  Cu13  1  0.33333333  0.66666667  0.67108767  1
  Cu  Cu14  1  0.66666667  0.33333333  0.83341633  1
  P  P15  1  0.37519033  0.04157067  0.08243667  1
  P  P16  1  0.66638033  0.62480967  0.08243667  1
  P  P17  1  0.95842933  0.33361967  0.08243667  1
  P  P18  1  0.71064800  0.99699000  0.24999900  1
  P  P19  1  0.00301000  0.71365800  0.24999900  1
  P  P20  1  0.28634200  0.28935200  0.24999900  1
  P  P21  1  0.04185700  0.37490400  0.41577000  1
  P  P22  1  0.33304700  0.95814300  0.41577000  1
  P  P23  1  0.62509600  0.66695300  0.41577000  1
  P  P24  1  0.37731467  0.33032333  0.58333233  1
  P  P25  1  0.66967667  0.04699133  0.58333233  1
  P  P26  1  0.95300867  0.62268533  0.58333233  1
  P  P27  1  0.70852367  0.70823733  0.74910333  1
  P  P28  1  0.99971367  0.29147633  0.74910333  1
  P  P29  1  0.29176267  0.00028633  0.74910333  1
  P  P30  1  0.04398133  0.66365667  0.91666567  1
  P  P31  1  0.33634333  0.38032467  0.91666567  1
  P  P32  1  0.61967533  0.95601867  0.91666567  1
  W  W33  1  0.66666667  0.33333333  0.19164133  1
  W  W34  1  0.33333333  0.66666667  0.52497467  1
  W  W35  1  0.00000000  0.00000000  0.85830800  1
  O  O36  1  0.67264533  0.52327667  0.02421667  1
  O  O37  1  0.85063133  0.32735467  0.02421667  1
  O  O38  1  0.47672333  0.14936867  0.02421667  1
  O  O39  1  0.18871400  0.02330700  0.08156000  1
  O  O40  1  0.47476733  0.13426567  0.14232567  1
  O  O41  1  0.35586733  0.85476567  0.08410267  1
  O  O42  1  0.83459300  0.81128600  0.08156000  1
  O  O43  1  0.49889833  0.64413267  0.08410267  1
  O  O44  1  0.80924867  0.99342133  0.19047333  1
  O  O45  1  0.14523433  0.50110167  0.08410267  1
  O  O46  1  0.69001833  0.16399167  0.25196667  1
  O  O47  1  0.00657867  0.81582733  0.19047333  1
  O  O48  1  0.65949833  0.52523267  0.14232567  1
  O  O49  1  0.97669300  0.16540700  0.08156000  1
  O  O50  1  0.52255200  0.83155000  0.24865900  1
  O  O51  1  0.86573433  0.34050167  0.14232567  1
  O  O52  1  0.16845000  0.69100200  0.24865900  1
  O  O53  1  0.83600833  0.52602667  0.25196667  1
  O  O54  1  0.30899800  0.47744800  0.24865900  1
  O  O55  1  0.18417267  0.19075133  0.19047333  1
  O  O56  1  0.47397333  0.30998167  0.25196667  1
  O  O57  1  0.19072467  0.18427933  0.30923833  1
  O  O58  1  0.81572067  0.00644533  0.30923833  1
  O  O59  1  0.99355467  0.80927533  0.30923833  1
  O  O60  1  0.33931200  0.85661000  0.35755000  1
  O  O61  1  0.51729800  0.66068800  0.35755000  1
  O  O62  1  0.14339000  0.48270200  0.35755000  1
  O  O63  1  0.85538067  0.35664033  0.41489333  1
  O  O64  1  0.14143400  0.46759900  0.47565900  1
  O  O65  1  0.02253400  0.18809900  0.41743600  1
  O  O66  1  0.50125967  0.14461933  0.41489333  1
  O  O67  1  0.16556500  0.97746600  0.41743600  1
  O  O68  1  0.47591533  0.32675467  0.52380667  1
  O  O69  1  0.81190100  0.83443500  0.41743600  1
  O  O70  1  0.35668500  0.49732500  0.58530000  1
  O  O71  1  0.67324533  0.14916067  0.52380667  1
  O  O72  1  0.32616500  0.85856600  0.47565900  1
  O  O73  1  0.64335967  0.49874033  0.41489333  1
  O  O74  1  0.18921867  0.16488333  0.58199233  1
  O  O75  1  0.53240100  0.67383500  0.47565900  1
  O  O76  1  0.83511667  0.02433533  0.58199233  1
  O  O77  1  0.50267500  0.85936000  0.58530000  1
  O  O78  1  0.97566467  0.81078133  0.58199233  1
  O  O79  1  0.85083933  0.52408467  0.52380667  1
  O  O80  1  0.14064000  0.64331500  0.58530000  1
  O  O81  1  0.85739133  0.51761267  0.64257167  1
  O  O82  1  0.48238733  0.33977867  0.64257167  1
  O  O83  1  0.66022133  0.14260867  0.64257167  1
  O  O84  1  0.00597867  0.18994333  0.69088333  1
  O  O85  1  0.18396467  0.99402133  0.69088333  1
  O  O86  1  0.81005667  0.81603533  0.69088333  1
  O  O87  1  0.52204733  0.68997367  0.74822667  1
  O  O88  1  0.80810067  0.80093233  0.80899233  1
  O  O89  1  0.68920067  0.52143233  0.75076933  1
  O  O90  1  0.16792633  0.47795267  0.74822667  1
  O  O91  1  0.83223167  0.31079933  0.75076933  1
  O  O92  1  0.14258200  0.66008800  0.85714000  1
  O  O93  1  0.47856767  0.16776833  0.75076933  1
  O  O94  1  0.02335167  0.83065833  0.91863333  1
  O  O95  1  0.33991200  0.48249400  0.85714000  1
  O  O96  1  0.99283167  0.19189933  0.80899233  1
  O  O97  1  0.31002633  0.83207367  0.74822667  1
  O  O98  1  0.85588533  0.49821667  0.91532567  1
  O  O99  1  0.19906767  0.00716833  0.80899233  1
  O  O100  1  0.50178333  0.35766867  0.91532567  1
  O  O101  1  0.16934167  0.19269333  0.91863333  1
  O  O102  1  0.64233133  0.14411467  0.91532567  1
  O  O103  1  0.51750600  0.85741800  0.85714000  1
  O  O104  1  0.80730667  0.97664833  0.91863333  1
  O  O105  1  0.52405800  0.85094600  0.97590500  1
  O  O106  1  0.14905400  0.67311200  0.97590500  1
  O  O107  1  0.32688800  0.47594200  0.97590500  1
