# generated using pymatgen
data_LiMnPO4
_symmetry_space_group_name_H-M   'P 1'
_cell_length_a   5.07046823
_cell_length_b   5.07046823
_cell_length_c   24.03286773
_cell_angle_alpha   90.00000000
_cell_angle_beta   90.00000000
_cell_angle_gamma   120.00000000
_symmetry_Int_Tables_number   1
_chemical_formula_structural   LiMnPO4
_chemical_formula_sum   'Li6 Mn6 P6 O24'
_cell_volume   535.09680667
_cell_formula_units_Z   6
loop_
 _symmetry_equiv_pos_site_id
 _symmetry_equiv_pos_as_xyz
  1  'x, y, z'
loop_
 _atom_site_type_symbol
 _atom_site_label
 _atom_site_symmetry_multiplicity
 _atom_site_fract_x
 _atom_site_fract_y
 _atom_site_fract_z
 _atom_site_occupancy
  Li  Li0  1  0.00000000  0.00000000  0.85765783  1
  Li  Li1  1  0.33333333  0.66666667  0.80900883  1
  Li  Li2  1  0.66666667  0.33333333  0.19099117  1
  Li  Li3  1  0.00000000  0.00000000  0.14234217  1
  Li  Li4  1  0.33333333  0.66666667  0.52432450  1
  Li  Li5  1  0.66666667  0.33333333  0.47567550  1
  Mn  Mn6  1  0.00000000  0.00000000  0.72535967  1
  Mn  Mn7  1  0.33333333  0.66666667  0.94130700  1
  Mn  Mn8  1  0.66666667  0.33333333  0.05869300  1
  Mn  Mn9  1  0.00000000  0.00000000  0.27464033  1
  Mn  Mn10  1  0.33333333  0.66666667  0.39202633  1
  Mn  Mn11  1  0.66666667  0.33333333  0.60797367  1
  P  P12  1  0.66666667  0.33333333  0.91123467  1
  P  P13  1  0.66666667  0.33333333  0.75543200  1
  P  P14  1  0.33333333  0.66666667  0.24456800  1
  P  P15  1  0.33333333  0.66666667  0.08876533  1
  P  P16  1  0.00000000  0.00000000  0.57790133  1
  P  P17  1  0.00000000  0.00000000  0.42209867  1
  O  O18  1  0.33333333  0.66666667  0.02444367  1
  O  O19  1  0.66666667  0.33333333  0.97555633  1
  O  O20  1  0.96755750  0.61500550  0.89074400  1
  O  O21  1  0.94833883  0.31411467  0.77592267  1
  O  O22  1  0.36577583  0.05166117  0.77592267  1
  O  O23  1  0.64744800  0.03244250  0.89074400  1
  O  O24  1  0.38499450  0.35255200  0.89074400  1
  O  O25  1  0.68588533  0.63422417  0.77592267  1
  O  O26  1  0.00000000  0.00000000  0.35777700  1
  O  O27  1  0.33333333  0.66666667  0.30888967  1
  O  O28  1  0.63422417  0.94833883  0.22407733  1
  O  O29  1  0.61500550  0.64744800  0.10925600  1
  O  O30  1  0.03244250  0.38499450  0.10925600  1
  O  O31  1  0.31411467  0.36577583  0.22407733  1
  O  O32  1  0.05166117  0.68588533  0.22407733  1
  O  O33  1  0.35255200  0.96755750  0.10925600  1
  O  O34  1  0.66666667  0.33333333  0.69111033  1
  O  O35  1  0.00000000  0.00000000  0.64222300  1
  O  O36  1  0.30089083  0.28167217  0.55741067  1
  O  O37  1  0.28167217  0.98078133  0.44258933  1
  O  O38  1  0.69910917  0.71832783  0.44258933  1
  O  O39  1  0.98078133  0.69910917  0.55741067  1
  O  O40  1  0.71832783  0.01921867  0.55741067  1
  O  O41  1  0.01921867  0.30089083  0.44258933  1
