# generated using pymatgen
data_Li5V5Cr2O12
_symmetry_space_group_name_H-M   'P 1'
_cell_length_a   5.19702600
_cell_length_b   9.06805200
_cell_length_c   9.98500403
_cell_angle_alpha   90.00000000
_cell_angle_beta   101.56140630
_cell_angle_gamma   90.00000000
_symmetry_Int_Tables_number   1
_chemical_formula_structural   Li5V5Cr2O12
_chemical_formula_sum   'Li10 V10 Cr4 O24'
_cell_volume   461.01481891
_cell_formula_units_Z   2
loop_
 _symmetry_equiv_pos_site_id
 _symmetry_equiv_pos_as_xyz
  1  'x, y, z'
loop_
 _atom_site_type_symbol
 _atom_site_label
 _atom_site_symmetry_multiplicity
 _atom_site_fract_x
 _atom_site_fract_y
 _atom_site_fract_z
 _atom_site_occupancy
  Li  Li0  1  0.75761950  0.91311550  0.23582700  1
  Li  Li1  1  0.25366550  0.58298950  0.76290300  1
  Li  Li2  1  0.24238050  0.91311550  0.76417300  1
  Li  Li3  1  0.74633450  0.58298950  0.23709700  1
  Li  Li4  1  0.00000000  0.91776600  0.00000000  1
  Li  Li5  1  0.25761950  0.41311550  0.23582700  1
  Li  Li6  1  0.75366550  0.08298950  0.76290300  1
  Li  Li7  1  0.74238050  0.41311550  0.76417300  1
  Li  Li8  1  0.24633450  0.08298950  0.23709700  1
  Li  Li9  1  0.50000000  0.41776600  0.00000000  1
  V  V10  1  0.75073900  0.75587600  0.75513400  1
  V  V11  1  0.24926100  0.75587600  0.24486600  1
  V  V12  1  0.50000000  0.91867400  0.50000000  1
  V  V13  1  0.00000000  0.58046700  0.00000000  1
  V  V14  1  0.50000000  0.58232700  0.50000000  1
  V  V15  1  0.25073900  0.25587600  0.75513400  1
  V  V16  1  0.74926100  0.25587600  0.24486600  1
  V  V17  1  0.00000000  0.41867400  0.50000000  1
  V  V18  1  0.50000000  0.08046700  0.00000000  1
  V  V19  1  0.00000000  0.08232700  0.50000000  1
  Cr  Cr20  1  0.50000000  0.75070300  0.00000000  1
  Cr  Cr21  1  0.00000000  0.75085800  0.50000000  1
  Cr  Cr22  1  0.00000000  0.25070300  0.00000000  1
  Cr  Cr23  1  0.50000000  0.25085800  0.50000000  1
  O  O24  1  0.63000200  0.59480300  0.87970400  1
  O  O25  1  0.36999800  0.59480300  0.12029600  1
  O  O26  1  0.62519950  0.74830150  0.38806100  1
  O  O27  1  0.37480050  0.74830150  0.61193900  1
  O  O28  1  0.61060650  0.91152950  0.88169100  1
  O  O29  1  0.38939350  0.91152950  0.11830900  1
  O  O30  1  0.12740150  0.59133650  0.38654400  1
  O  O31  1  0.87259850  0.59133650  0.61345600  1
  O  O32  1  0.12833900  0.73967700  0.88089400  1
  O  O33  1  0.87166100  0.73967700  0.11910600  1
  O  O34  1  0.11774650  0.91197350  0.38493300  1
  O  O35  1  0.88225350  0.91197350  0.61506700  1
  O  O36  1  0.13000200  0.09480300  0.87970400  1
  O  O37  1  0.86999800  0.09480300  0.12029600  1
  O  O38  1  0.12519950  0.24830150  0.38806100  1
  O  O39  1  0.87480050  0.24830150  0.61193900  1
  O  O40  1  0.11060650  0.41152950  0.88169100  1
  O  O41  1  0.88939350  0.41152950  0.11830900  1
  O  O42  1  0.62740150  0.09133650  0.38654400  1
  O  O43  1  0.37259850  0.09133650  0.61345600  1
  O  O44  1  0.62833900  0.23967700  0.88089400  1
  O  O45  1  0.37166100  0.23967700  0.11910600  1
  O  O46  1  0.61774650  0.41197350  0.38493300  1
  O  O47  1  0.38225350  0.41197350  0.61506700  1
