# generated using pymatgen
data_Li2NiP2O7
_symmetry_space_group_name_H-M   'P 1'
_cell_length_a   7.88337600
_cell_length_b   12.90226200
_cell_length_c   10.95965048
_cell_angle_alpha   90.00000000
_cell_angle_beta   92.40623436
_cell_angle_gamma   90.00000000
_symmetry_Int_Tables_number   1
_chemical_formula_structural   Li2NiP2O7
_chemical_formula_sum   'Li16 Ni8 P16 O56'
_cell_volume   1113.76021716
_cell_formula_units_Z   8
loop_
 _symmetry_equiv_pos_site_id
 _symmetry_equiv_pos_as_xyz
  1  'x, y, z'
loop_
 _atom_site_type_symbol
 _atom_site_label
 _atom_site_symmetry_multiplicity
 _atom_site_fract_x
 _atom_site_fract_y
 _atom_site_fract_z
 _atom_site_occupancy
  Li  Li0  1  0.49298900  0.78809400  0.99824000  1
  Li  Li1  1  0.49298900  0.21190600  0.49824000  1
  Li  Li2  1  0.50000000  0.78426300  0.75000000  1
  Li  Li3  1  0.50000000  0.20668000  0.75000000  1
  Li  Li4  1  0.50000000  0.79332000  0.25000000  1
  Li  Li5  1  0.50000000  0.21573700  0.25000000  1
  Li  Li6  1  0.50701100  0.78809400  0.50176000  1
  Li  Li7  1  0.50701100  0.21190600  0.00176000  1
  Li  Li8  1  0.99298900  0.28809400  0.99824000  1
  Li  Li9  1  0.99298900  0.71190600  0.49824000  1
  Li  Li10  1  0.00000000  0.28426300  0.75000000  1
  Li  Li11  1  0.00000000  0.70668000  0.75000000  1
  Li  Li12  1  0.00000000  0.29332000  0.25000000  1
  Li  Li13  1  0.00000000  0.71573700  0.25000000  1
  Li  Li14  1  0.00701100  0.28809400  0.50176000  1
  Li  Li15  1  0.00701100  0.71190600  0.00176000  1
  Ni  Ni16  1  0.30352500  0.99944800  0.88708400  1
  Ni  Ni17  1  0.30352500  0.00055200  0.38708400  1
  Ni  Ni18  1  0.69647500  0.99944800  0.61291600  1
  Ni  Ni19  1  0.69647500  0.00055200  0.11291600  1
  Ni  Ni20  1  0.80352500  0.49944800  0.88708400  1
  Ni  Ni21  1  0.80352500  0.50055200  0.38708400  1
  Ni  Ni22  1  0.19647500  0.49944800  0.61291600  1
  Ni  Ni23  1  0.19647500  0.50055200  0.11291600  1
  P  P24  1  0.19117900  0.10598500  0.63229900  1
  P  P25  1  0.19117900  0.89401500  0.13229900  1
  P  P26  1  0.20446250  0.88619650  0.63395200  1
  P  P27  1  0.20446250  0.11380350  0.13395200  1
  P  P28  1  0.79553750  0.88619650  0.86604800  1
  P  P29  1  0.79553750  0.11380350  0.36604800  1
  P  P30  1  0.80882100  0.10598500  0.86770100  1
  P  P31  1  0.80882100  0.89401500  0.36770100  1
  P  P32  1  0.69117900  0.60598500  0.63229900  1
  P  P33  1  0.69117900  0.39401500  0.13229900  1
  P  P34  1  0.70446250  0.38619650  0.63395200  1
  P  P35  1  0.70446250  0.61380350  0.13395200  1
  P  P36  1  0.29553750  0.38619650  0.86604800  1
  P  P37  1  0.29553750  0.61380350  0.36604800  1
  P  P38  1  0.30882100  0.60598500  0.86770100  1
  P  P39  1  0.30882100  0.39401500  0.36770100  1
  O  O40  1  0.09246700  0.99388800  0.62744100  1
  O  O41  1  0.09246700  0.00611200  0.12744100  1
  O  O42  1  0.30569550  0.10887850  0.52050100  1
  O  O43  1  0.30569550  0.89112150  0.02050100  1
  O  O44  1  0.30912000  0.88863300  0.75654300  1
  O  O45  1  0.30912000  0.11136700  0.25654300  1
  O  O46  1  0.30258250  0.10555850  0.75185800  1
  O  O47  1  0.30258250  0.89444150  0.25185800  1
  O  O48  1  0.32458200  0.89346900  0.52542600  1
  O  O49  1  0.32458200  0.10653100  0.02542600  1
  O  O50  1  0.42017550  0.29832550  0.87360100  1
  O  O51  1  0.42017550  0.70167450  0.37360100  1
  O  O52  1  0.44506850  0.68744350  0.87363700  1
  O  O53  1  0.44506850  0.31255650  0.37363700  1
  O  O54  1  0.55493150  0.68744350  0.62636300  1
  O  O55  1  0.55493150  0.31255650  0.12636300  1
  O  O56  1  0.57982450  0.29832550  0.62639900  1
  O  O57  1  0.57982450  0.70167450  0.12639900  1
  O  O58  1  0.67541800  0.89346900  0.97457400  1
  O  O59  1  0.67541800  0.10653100  0.47457400  1
  O  O60  1  0.69741750  0.10555850  0.74814200  1
  O  O61  1  0.69741750  0.89444150  0.24814200  1
  O  O62  1  0.69088000  0.88863300  0.74345700  1
  O  O63  1  0.69088000  0.11136700  0.24345700  1
  O  O64  1  0.69430450  0.10887850  0.97949900  1
  O  O65  1  0.69430450  0.89112150  0.47949900  1
  O  O66  1  0.90753300  0.99388800  0.87255900  1
  O  O67  1  0.90753300  0.00611200  0.37255900  1
  O  O68  1  0.59246700  0.49388800  0.62744100  1
  O  O69  1  0.59246700  0.50611200  0.12744100  1
  O  O70  1  0.80569550  0.60887850  0.52050100  1
  O  O71  1  0.80569550  0.39112150  0.02050100  1
  O  O72  1  0.80912000  0.38863300  0.75654300  1
  O  O73  1  0.80912000  0.61136700  0.25654300  1
  O  O74  1  0.80258250  0.60555850  0.75185800  1
  O  O75  1  0.80258250  0.39444150  0.25185800  1
  O  O76  1  0.82458200  0.39346900  0.52542600  1
  O  O77  1  0.82458200  0.60653100  0.02542600  1
  O  O78  1  0.92017550  0.79832550  0.87360100  1
  O  O79  1  0.92017550  0.20167450  0.37360100  1
  O  O80  1  0.94506850  0.18744350  0.87363700  1
  O  O81  1  0.94506850  0.81255650  0.37363700  1
  O  O82  1  0.05493150  0.18744350  0.62636300  1
  O  O83  1  0.05493150  0.81255650  0.12636300  1
  O  O84  1  0.07982450  0.79832550  0.62639900  1
  O  O85  1  0.07982450  0.20167450  0.12639900  1
  O  O86  1  0.17541800  0.39346900  0.97457400  1
  O  O87  1  0.17541800  0.60653100  0.47457400  1
  O  O88  1  0.19741750  0.60555850  0.74814200  1
  O  O89  1  0.19741750  0.39444150  0.24814200  1
  O  O90  1  0.19088000  0.38863300  0.74345700  1
  O  O91  1  0.19088000  0.61136700  0.24345700  1
  O  O92  1  0.19430450  0.60887850  0.97949900  1
  O  O93  1  0.19430450  0.39112150  0.47949900  1
  O  O94  1  0.40753300  0.49388800  0.87255900  1
  O  O95  1  0.40753300  0.50611200  0.37255900  1
