# generated using pymatgen
data_LiTi4Mn(PO4)6
_symmetry_space_group_name_H-M   'P 1'
_cell_length_a   8.65745031
_cell_length_b   8.65745031
_cell_length_c   21.13888178
_cell_angle_alpha   90.00000000
_cell_angle_beta   90.00000000
_cell_angle_gamma   120.00000000
_symmetry_Int_Tables_number   1
_chemical_formula_structural   LiTi4Mn(PO4)6
_chemical_formula_sum   'Li3 Ti12 Mn3 P18 O72'
_cell_volume   1372.12177615
_cell_formula_units_Z   3
loop_
 _symmetry_equiv_pos_site_id
 _symmetry_equiv_pos_as_xyz
  1  'x, y, z'
loop_
 _atom_site_type_symbol
 _atom_site_label
 _atom_site_symmetry_multiplicity
 _atom_site_fract_x
 _atom_site_fract_y
 _atom_site_fract_z
 _atom_site_occupancy
  Li  Li0  1  0.33333333  0.66666667  0.16666667  1
  Li  Li1  1  1.00000000  0.00000000  0.50000000  1
  Li  Li2  1  0.66666667  0.33333333  0.83333333  1
  Ti  Ti3  1  0.33333333  0.66666667  0.52136567  1
  Ti  Ti4  1  0.33333333  0.66666667  0.30862367  1
  Ti  Ti5  1  0.33333333  0.66666667  0.02470967  1
  Ti  Ti6  1  0.33333333  0.66666667  0.81196767  1
  Ti  Ti7  1  0.00000000  0.00000000  0.85469900  1
  Ti  Ti8  1  0.00000000  0.00000000  0.64195700  1
  Ti  Ti9  1  0.00000000  0.00000000  0.35804300  1
  Ti  Ti10  1  0.00000000  0.00000000  0.14530100  1
  Ti  Ti11  1  0.66666667  0.33333333  0.18803233  1
  Ti  Ti12  1  0.66666667  0.33333333  0.97529033  1
  Ti  Ti13  1  0.66666667  0.33333333  0.69137633  1
  Ti  Ti14  1  0.66666667  0.33333333  0.47863433  1
  Mn  Mn15  1  0.00000000  0.00000000  0.00000000  1
  Mn  Mn16  1  0.66666667  0.33333333  0.33333333  1
  Mn  Mn17  1  0.33333333  0.66666667  0.66666667  1
  P  P18  1  0.70769300  0.70818500  0.25079000  1
  P  P19  1  0.29181500  0.99950800  0.25079000  1
  P  P20  1  0.00049200  0.29230700  0.25079000  1
  P  P21  1  0.66617467  0.04102633  0.08254333  1
  P  P22  1  0.37485167  0.33382533  0.08254333  1
  P  P23  1  0.95897367  0.62514833  0.08254333  1
  P  P24  1  0.37435967  0.04151833  0.58412333  1
  P  P25  1  0.95848167  0.33284133  0.58412333  1
  P  P26  1  0.66715867  0.62564033  0.58412333  1
  P  P27  1  0.33284133  0.37435967  0.41587667  1
  P  P28  1  0.04151833  0.66715867  0.41587667  1
  P  P29  1  0.62564033  0.95848167  0.41587667  1
  P  P30  1  0.04102633  0.37485167  0.91745667  1
  P  P31  1  0.62514833  0.66617467  0.91745667  1
  P  P32  1  0.33382533  0.95897367  0.91745667  1
  P  P33  1  0.99950800  0.70769300  0.74921000  1
  P  P34  1  0.70818500  0.00049200  0.74921000  1
  P  P35  1  0.29230700  0.29181500  0.74921000  1
  O  O36  1  0.52029000  0.85671900  0.35666400  1
  O  O37  1  0.33642900  0.47971000  0.35666400  1
  O  O38  1  0.68938700  0.52003200  0.25464100  1
  O  O39  1  0.14328100  0.66357100  0.35666400  1
  O  O40  1  0.80839100  0.80947000  0.19046300  1
  O  O41  1  0.52064400  0.68807600  0.24746500  1
  O  O42  1  0.47996800  0.16935500  0.25464100  1
  O  O43  1  0.31192400  0.83256800  0.24746500  1
  O  O44  1  0.66558767  0.14172433  0.14287033  1
  O  O45  1  0.16743200  0.47935600  0.24746500  1
  O  O46  1  0.83602167  0.02272033  0.07869233  1
  O  O47  1  0.47613667  0.33441233  0.14287033  1
  O  O48  1  0.19053000  0.99892100  0.19046300  1
  O  O49  1  0.83064500  0.31061300  0.25464100  1
  O  O50  1  0.49923467  0.85397733  0.08586833  1
  O  O51  1  0.00107900  0.19160900  0.19046300  1
  O  O52  1  0.35474267  0.50076533  0.08586833  1
  O  O53  1  0.18669867  0.16397833  0.07869233  1
  O  O54  1  0.14602267  0.64525733  0.08586833  1
  O  O55  1  0.85827567  0.52386333  0.14287033  1
  O  O56  1  0.52338567  0.66976233  0.97666933  1
  O  O57  1  0.97727967  0.81330133  0.07869233  1
  O  O58  1  0.33023767  0.85362333  0.97666933  1
  O  O59  1  0.14637667  0.47661433  0.97666933  1
  O  O60  1  0.18695667  0.19005233  0.68999733  1
  O  O61  1  0.00309567  0.81304333  0.68999733  1
  O  O62  1  0.35605367  0.85336533  0.58797433  1
  O  O63  1  0.80994767  0.99690433  0.68999733  1
  O  O64  1  0.47505767  0.14280333  0.52379633  1
  O  O65  1  0.18731067  0.02140933  0.58079833  1
  O  O66  1  0.14663467  0.50268833  0.58797433  1
  O  O67  1  0.97859067  0.16590133  0.58079833  1
  O  O68  1  0.33225433  0.47505767  0.47620367  1
  O  O69  1  0.83409867  0.81268933  0.58079833  1
  O  O70  1  0.50268833  0.35605367  0.41202567  1
  O  O71  1  0.14280333  0.66774567  0.47620367  1
  O  O72  1  0.85719667  0.33225433  0.52379633  1
  O  O73  1  0.49731167  0.64394633  0.58797433  1
  O  O74  1  0.16590133  0.18731067  0.41920167  1
  O  O75  1  0.66774567  0.52494233  0.52379633  1
  O  O76  1  0.02140933  0.83409867  0.41920167  1
  O  O77  1  0.85336533  0.49731167  0.41202567  1
  O  O78  1  0.81268933  0.97859067  0.41920167  1
  O  O79  1  0.52494233  0.85719667  0.47620367  1
  O  O80  1  0.19005233  0.00309567  0.31000267  1
  O  O81  1  0.64394633  0.14663467  0.41202567  1
  O  O82  1  0.99690433  0.18695667  0.31000267  1
  O  O83  1  0.81304333  0.80994767  0.31000267  1
  O  O84  1  0.85362333  0.52338567  0.02333067  1
  O  O85  1  0.66976233  0.14637667  0.02333067  1
  O  O86  1  0.02272033  0.18669867  0.92130767  1
  O  O87  1  0.47661433  0.33023767  0.02333067  1
  O  O88  1  0.14172433  0.47613667  0.85712967  1
  O  O89  1  0.85397733  0.35474267  0.91413167  1
  O  O90  1  0.81330133  0.83602167  0.92130767  1
  O  O91  1  0.64525733  0.49923467  0.91413167  1
  O  O92  1  0.99892100  0.80839100  0.80953700  1
  O  O93  1  0.50076533  0.14602267  0.91413167  1
  O  O94  1  0.16935500  0.68938700  0.74535900  1
  O  O95  1  0.80947000  0.00107900  0.80953700  1
  O  O96  1  0.52386333  0.66558767  0.85712967  1
  O  O97  1  0.16397833  0.97727967  0.92130767  1
  O  O98  1  0.83256800  0.52064400  0.75253500  1
  O  O99  1  0.33441233  0.85827567  0.85712967  1
  O  O100  1  0.68807600  0.16743200  0.75253500  1
  O  O101  1  0.52003200  0.83064500  0.74535900  1
  O  O102  1  0.47935600  0.31192400  0.75253500  1
  O  O103  1  0.19160900  0.19053000  0.80953700  1
  O  O104  1  0.85671900  0.33642900  0.64333600  1
  O  O105  1  0.31061300  0.47996800  0.74535900  1
  O  O106  1  0.66357100  0.52029000  0.64333600  1
  O  O107  1  0.47971000  0.14328100  0.64333600  1
