# generated using pymatgen
data_FeNi(PO4)2
_symmetry_space_group_name_H-M   'P 1'
_cell_length_a   8.64915161
_cell_length_b   8.64915161
_cell_length_c   20.69298694
_cell_angle_alpha   90.00000000
_cell_angle_beta   90.00000000
_cell_angle_gamma   120.00000000
_symmetry_Int_Tables_number   1
_chemical_formula_structural   FeNi(PO4)2
_chemical_formula_sum   'Fe9 Ni9 P18 O72'
_cell_volume   1340.60500118
_cell_formula_units_Z   9
loop_
 _symmetry_equiv_pos_site_id
 _symmetry_equiv_pos_as_xyz
  1  'x, y, z'
loop_
 _atom_site_type_symbol
 _atom_site_label
 _atom_site_symmetry_multiplicity
 _atom_site_fract_x
 _atom_site_fract_y
 _atom_site_fract_z
 _atom_site_occupancy
  Fe  Fe0  1  0.33333333  0.66666667  0.31126167  1
  Fe  Fe1  1  0.33333333  0.66666667  0.52322767  1
  Fe  Fe2  1  0.33333333  0.66666667  0.02300867  1
  Fe  Fe3  1  0.00000000  0.00000000  0.64459500  1
  Fe  Fe4  1  0.00000000  0.00000000  0.85656100  1
  Fe  Fe5  1  0.00000000  0.00000000  0.35634200  1
  Fe  Fe6  1  0.66666667  0.33333333  0.97792833  1
  Fe  Fe7  1  0.66666667  0.33333333  0.18989433  1
  Fe  Fe8  1  0.66666667  0.33333333  0.68967533  1
  Ni  Ni9  1  0.33333333  0.66666667  0.66724667  1
  Ni  Ni10  1  0.33333333  0.66666667  0.80854767  1
  Ni  Ni11  1  0.33333333  0.66666667  0.16691167  1
  Ni  Ni12  1  0.00000000  0.00000000  0.00058000  1
  Ni  Ni13  1  0.00000000  0.00000000  0.14188100  1
  Ni  Ni14  1  0.00000000  0.00000000  0.50024500  1
  Ni  Ni15  1  0.66666667  0.33333333  0.33391333  1
  Ni  Ni16  1  0.66666667  0.33333333  0.47521433  1
  Ni  Ni17  1  0.66666667  0.33333333  0.83357833  1
  P  P18  1  0.70433767  0.70467333  0.24962433  1
  P  P19  1  0.29532667  0.99966433  0.24962433  1
  P  P20  1  0.00033567  0.29566233  0.24962433  1
  P  P21  1  0.66762267  0.03695033  0.08378033  1
  P  P22  1  0.36932767  0.33237733  0.08378033  1
  P  P23  1  0.96304967  0.63067233  0.08378033  1
  P  P24  1  0.37100433  0.03800667  0.58295767  1
  P  P25  1  0.96199333  0.33299767  0.58295767  1
  P  P26  1  0.66700233  0.62899567  0.58295767  1
  P  P27  1  0.33428933  0.37028367  0.41711367  1
  P  P28  1  0.03599433  0.66571067  0.41711367  1
  P  P29  1  0.62971633  0.96400567  0.41711367  1
  P  P30  1  0.03767100  0.37134000  0.91629100  1
  P  P31  1  0.62866000  0.66633100  0.91629100  1
  P  P32  1  0.33366900  0.96232900  0.91629100  1
  P  P33  1  0.00095600  0.70361700  0.75044700  1
  P  P34  1  0.70266100  0.99904400  0.75044700  1
  P  P35  1  0.29638300  0.29733900  0.75044700  1
  O  O36  1  0.52613533  0.65961067  0.97759267  1
  O  O37  1  0.34038933  0.86652467  0.97759267  1
  O  O38  1  0.13347533  0.47386467  0.97759267  1
  O  O39  1  0.68083100  0.51414000  0.25903500  1
  O  O40  1  0.79918533  0.79817667  0.18748167  1
  O  O41  1  0.51218733  0.67923167  0.24176567  1
  O  O42  1  0.48586000  0.16669100  0.25903500  1
  O  O43  1  0.32076833  0.83295567  0.24176567  1
  O  O44  1  0.67704700  0.14080800  0.14506100  1
  O  O45  1  0.16704433  0.48781267  0.24176567  1
  O  O46  1  0.83422567  0.01564033  0.07350833  1
  O  O47  1  0.46376100  0.32295300  0.14506100  1
  O  O48  1  0.20182333  0.00100867  0.18748167  1
  O  O49  1  0.83330900  0.31916900  0.25903500  1
  O  O50  1  0.49962600  0.84693500  0.09290000  1
  O  O51  1  0.99899133  0.20081467  0.18748167  1
  O  O52  1  0.34730900  0.50037400  0.09290000  1
  O  O53  1  0.18141467  0.16577433  0.07350833  1
  O  O54  1  0.15306500  0.65269100  0.09290000  1
  O  O55  1  0.85919200  0.53623900  0.14506100  1
  O  O56  1  0.98435967  0.81858533  0.07350833  1
  O  O57  1  0.53562333  0.85896067  0.35585367  1
  O  O58  1  0.32333733  0.46437667  0.35585367  1
  O  O59  1  0.14103933  0.67666267  0.35585367  1
  O  O60  1  0.19280200  0.99294400  0.31092600  1
  O  O61  1  0.00705600  0.19985800  0.31092600  1
  O  O62  1  0.80014200  0.80719800  0.31092600  1
  O  O63  1  0.34749767  0.84747333  0.59236833  1
  O  O64  1  0.46585200  0.13151000  0.52081500  1
  O  O65  1  0.17885400  0.01256500  0.57509900  1
  O  O66  1  0.15252667  0.50002433  0.59236833  1
  O  O67  1  0.98743500  0.16628900  0.57509900  1
  O  O68  1  0.34371367  0.47414133  0.47839433  1
  O  O69  1  0.83371100  0.82114600  0.57509900  1
  O  O70  1  0.50089233  0.34897367  0.40684167  1
  O  O71  1  0.13042767  0.65628633  0.47839433  1
  O  O72  1  0.86849000  0.33434200  0.52081500  1
  O  O73  1  0.49997567  0.65250233  0.59236833  1
  O  O74  1  0.16629267  0.18026833  0.42623333  1
  O  O75  1  0.66565800  0.53414800  0.52081500  1
  O  O76  1  0.01397567  0.83370733  0.42623333  1
  O  O77  1  0.84808133  0.49910767  0.40684167  1
  O  O78  1  0.81973167  0.98602433  0.42623333  1
  O  O79  1  0.52585867  0.86957233  0.47839433  1
  O  O80  1  0.65102633  0.15191867  0.40684167  1
  O  O81  1  0.20229000  0.19229400  0.68918700  1
  O  O82  1  0.99000400  0.79771000  0.68918700  1
  O  O83  1  0.80770600  0.00999600  0.68918700  1
  O  O84  1  0.85946867  0.32627733  0.64425933  1
  O  O85  1  0.67372267  0.53319133  0.64425933  1
  O  O86  1  0.46680867  0.14053133  0.64425933  1
  O  O87  1  0.01416433  0.18080667  0.92570167  1
  O  O88  1  0.13251867  0.46484333  0.85414833  1
  O  O89  1  0.84552067  0.34589833  0.90843233  1
  O  O90  1  0.81919333  0.83335767  0.92570167  1
  O  O91  1  0.65410167  0.49962233  0.90843233  1
  O  O92  1  0.01038033  0.80747467  0.81172767  1
  O  O93  1  0.50037767  0.15447933  0.90843233  1
  O  O94  1  0.16755900  0.68230700  0.74017500  1
  O  O95  1  0.79709433  0.98961967  0.81172767  1
  O  O96  1  0.53515667  0.66767533  0.85414833  1
  O  O97  1  0.16664233  0.98583567  0.92570167  1
  O  O98  1  0.83295933  0.51360167  0.75956667  1
  O  O99  1  0.33232467  0.86748133  0.85414833  1
  O  O100  1  0.68064233  0.16704067  0.75956667  1
  O  O101  1  0.51474800  0.83244100  0.74017500  1
  O  O102  1  0.48639833  0.31935767  0.75956667  1
  O  O103  1  0.19252533  0.20290567  0.81172767  1
  O  O104  1  0.31769300  0.48525200  0.74017500  1
  O  O105  1  0.86895667  0.52562733  0.02252033  1
  O  O106  1  0.65667067  0.13104333  0.02252033  1
  O  O107  1  0.47437267  0.34332933  0.02252033  1
