# generated using pymatgen
data_LiMnPO4
_symmetry_space_group_name_H-M   'P 1'
_cell_length_a   5.54552400
_cell_length_b   5.68131802
_cell_length_c   10.67574403
_cell_angle_alpha   90.00000000
_cell_angle_beta   90.00000000
_cell_angle_gamma   90.00000000
_symmetry_Int_Tables_number   1
_chemical_formula_structural   LiMnPO4
_chemical_formula_sum   'Li4 Mn4 P4 O16'
_cell_volume   336.34876818
_cell_formula_units_Z   4
loop_
 _symmetry_equiv_pos_site_id
 _symmetry_equiv_pos_as_xyz
  1  'x, y, z'
loop_
 _atom_site_type_symbol
 _atom_site_label
 _atom_site_symmetry_multiplicity
 _atom_site_fract_x
 _atom_site_fract_y
 _atom_site_fract_z
 _atom_site_occupancy
  Li  Li0  1  0.92521900  0.37165350  0.54015850  1
  Li  Li1  1  0.42521900  0.87165350  0.95984150  1
  Li  Li2  1  0.92521900  0.12834650  0.04015850  1
  Li  Li3  1  0.42521900  0.62834650  0.45984150  1
  Mn  Mn4  1  0.02326400  0.92261350  0.67495150  1
  Mn  Mn5  1  0.52326400  0.42261350  0.82504850  1
  Mn  Mn6  1  0.02326400  0.57738650  0.17495150  1
  Mn  Mn7  1  0.52326400  0.07738650  0.32504850  1
  P  P8  1  0.51926200  0.14616250  0.59967250  1
  P  P9  1  0.01926200  0.64616250  0.90032750  1
  P  P10  1  0.51926200  0.35383750  0.09967250  1
  P  P11  1  0.01926200  0.85383750  0.40032750  1
  O  O12  1  0.53438900  0.31537550  0.48360050  1
  O  O13  1  0.52134400  0.89324750  0.55276850  1
  O  O14  1  0.79888800  0.70411850  0.81454450  1
  O  O15  1  0.24664000  0.70474050  0.81657650  1
  O  O16  1  0.74664000  0.20474050  0.68342350  1
  O  O17  1  0.29888800  0.20411850  0.68545550  1
  O  O18  1  0.02134400  0.39324750  0.94723150  1
  O  O19  1  0.03438900  0.81537550  0.01639950  1
  O  O20  1  0.53438900  0.18462450  0.98360050  1
  O  O21  1  0.52134400  0.60675250  0.05276850  1
  O  O22  1  0.79888800  0.79588150  0.31454450  1
  O  O23  1  0.24664000  0.79525950  0.31657650  1
  O  O24  1  0.74664000  0.29525950  0.18342350  1
  O  O25  1  0.29888800  0.29588150  0.18545550  1
  O  O26  1  0.02134400  0.10675250  0.44723150  1
  O  O27  1  0.03438900  0.68462450  0.51639950  1
