# generated using pymatgen
data_Li3Fe4SnO8
_symmetry_space_group_name_H-M   'P 1'
_cell_length_a   10.41174400
_cell_length_b   6.16683800
_cell_length_c   6.24686139
_cell_angle_alpha   90.00000000
_cell_angle_beta   125.72349492
_cell_angle_gamma   90.00000000
_symmetry_Int_Tables_number   1
_chemical_formula_structural   Li3Fe4SnO8
_chemical_formula_sum   'Li6 Fe8 Sn2 O16'
_cell_volume   325.62711917
_cell_formula_units_Z   2
loop_
 _symmetry_equiv_pos_site_id
 _symmetry_equiv_pos_as_xyz
  1  'x, y, z'
loop_
 _atom_site_type_symbol
 _atom_site_label
 _atom_site_symmetry_multiplicity
 _atom_site_fract_x
 _atom_site_fract_y
 _atom_site_fract_z
 _atom_site_occupancy
  Li  Li0  1  0.75000000  0.75000000  0.00000000  1
  Li  Li1  1  0.00000000  0.00000000  0.50000000  1
  Li  Li2  1  0.25000000  0.75000000  0.00000000  1
  Li  Li3  1  0.25000000  0.25000000  0.00000000  1
  Li  Li4  1  0.50000000  0.50000000  0.50000000  1
  Li  Li5  1  0.75000000  0.25000000  0.00000000  1
  Fe  Fe6  1  0.50000000  0.00000000  0.50000000  1
  Fe  Fe7  1  0.00000000  0.00000000  0.00000000  1
  Fe  Fe8  1  0.25000000  0.25000000  0.50000000  1
  Fe  Fe9  1  0.25000000  0.75000000  0.50000000  1
  Fe  Fe10  1  0.00000000  0.50000000  0.50000000  1
  Fe  Fe11  1  0.50000000  0.50000000  0.00000000  1
  Fe  Fe12  1  0.75000000  0.75000000  0.50000000  1
  Fe  Fe13  1  0.75000000  0.25000000  0.50000000  1
  Sn  Sn14  1  0.00000000  0.50000000  0.00000000  1
  Sn  Sn15  1  0.50000000  0.00000000  0.00000000  1
  O  O16  1  0.25611000  0.00000000  0.73693000  1
  O  O17  1  0.99338300  0.75089500  0.22466500  1
  O  O18  1  0.99338300  0.24910500  0.22466500  1
  O  O19  1  0.25337000  0.50000000  0.75293900  1
  O  O20  1  0.24663000  0.00000000  0.24706100  1
  O  O21  1  0.50661700  0.25089500  0.77533500  1
  O  O22  1  0.50661700  0.74910500  0.77533500  1
  O  O23  1  0.24389000  0.50000000  0.26307000  1
  O  O24  1  0.75611000  0.50000000  0.73693000  1
  O  O25  1  0.49338300  0.25089500  0.22466500  1
  O  O26  1  0.49338300  0.74910500  0.22466500  1
  O  O27  1  0.75337000  0.00000000  0.75293900  1
  O  O28  1  0.74663000  0.50000000  0.24706100  1
  O  O29  1  0.00661700  0.75089500  0.77533500  1
  O  O30  1  0.00661700  0.24910500  0.77533500  1
  O  O31  1  0.74389000  0.00000000  0.26307000  1
