# generated using pymatgen
data_MnPO4
_symmetry_space_group_name_H-M   'P 1'
_cell_length_a   5.13398442
_cell_length_b   5.13398442
_cell_length_c   11.84098517
_cell_angle_alpha   90.00000000
_cell_angle_beta   90.00000000
_cell_angle_gamma   120.00000000
_symmetry_Int_Tables_number   1
_chemical_formula_structural   MnPO4
_chemical_formula_sum   'Mn3 P3 O12'
_cell_volume   270.28849608
_cell_formula_units_Z   3
loop_
 _symmetry_equiv_pos_site_id
 _symmetry_equiv_pos_as_xyz
  1  'x, y, z'
loop_
 _atom_site_type_symbol
 _atom_site_label
 _atom_site_symmetry_multiplicity
 _atom_site_fract_x
 _atom_site_fract_y
 _atom_site_fract_z
 _atom_site_occupancy
  Mn  Mn0  1  0.00000000  0.44733500  0.16666667  1
  Mn  Mn1  1  0.55266500  0.55266500  0.50000000  1
  Mn  Mn2  1  0.44733500  0.00000000  0.83333333  1
  P  P3  1  0.00000000  0.43975750  0.66666667  1
  P  P4  1  0.56024250  0.56024250  0.00000000  1
  P  P5  1  0.43975750  0.00000000  0.33333333  1
  O  O6  1  0.11165200  0.66984300  0.76528700  1
  O  O7  1  0.13755900  0.73838600  0.29108100  1
  O  O8  1  0.26161400  0.39917300  0.62441433  1
  O  O9  1  0.33015700  0.44180900  0.09862033  1
  O  O10  1  0.55819100  0.88834800  0.43195367  1
  O  O11  1  0.60082700  0.86244100  0.95774767  1
  O  O12  1  0.44180900  0.33015700  0.90137967  1
  O  O13  1  0.39917300  0.26161400  0.37558567  1
  O  O14  1  0.86244100  0.60082700  0.04225233  1
  O  O15  1  0.88834800  0.55819100  0.56804633  1
  O  O16  1  0.66984300  0.11165200  0.23471300  1
  O  O17  1  0.73838600  0.13755900  0.70891900  1
