# generated using pymatgen
data_Li3Fe(PO4)2
_symmetry_space_group_name_H-M   'P 1'
_cell_length_a   7.06637381
_cell_length_b   5.29549514
_cell_length_c   8.56345720
_cell_angle_alpha   90.00000000
_cell_angle_beta   94.13654743
_cell_angle_gamma   90.00000000
_symmetry_Int_Tables_number   1
_chemical_formula_structural   Li3Fe(PO4)2
_chemical_formula_sum   'Li6 Fe2 P4 O16'
_cell_volume   319.60935964
_cell_formula_units_Z   2
loop_
 _symmetry_equiv_pos_site_id
 _symmetry_equiv_pos_as_xyz
  1  'x, y, z'
loop_
 _atom_site_type_symbol
 _atom_site_label
 _atom_site_symmetry_multiplicity
 _atom_site_fract_x
 _atom_site_fract_y
 _atom_site_fract_z
 _atom_site_occupancy
  Li  Li0  1  0.84989975  0.75000000  0.01544475  1
  Li  Li1  1  0.15010025  0.25000000  0.98455525  1
  Li  Li2  1  0.01608725  0.25000000  0.27381475  1
  Li  Li3  1  0.98391275  0.75000000  0.72618525  1
  Li  Li4  1  0.19967825  0.75000000  0.34465425  1
  Li  Li5  1  0.80032175  0.25000000  0.65534575  1
  Fe  Fe6  1  0.45656025  0.25000000  0.25144725  1
  Fe  Fe7  1  0.54343975  0.75000000  0.74855275  1
  P  P8  1  0.27352825  0.75000000  0.04632275  1
  P  P9  1  0.72647175  0.25000000  0.95367725  1
  P  P10  1  0.73264225  0.75000000  0.39873675  1
  P  P11  1  0.26735775  0.25000000  0.60126325  1
  O  O12  1  0.45662225  0.75000000  0.96281425  1
  O  O13  1  0.54337775  0.25000000  0.03718575  1
  O  O14  1  0.90295975  0.25000000  0.06867375  1
  O  O15  1  0.09704025  0.75000000  0.93132625  1
  O  O16  1  0.92987225  0.75000000  0.33360225  1
  O  O17  1  0.07012775  0.25000000  0.66639775  1
  O  O18  1  0.24631825  0.25000000  0.41741525  1
  O  O19  1  0.75368175  0.75000000  0.58258475  1
  O  O20  1  0.26033225  0.51504950  0.15673975  1
  O  O21  1  0.26033225  0.98495050  0.15673975  1
  O  O22  1  0.73966775  0.01504950  0.84326025  1
  O  O23  1  0.73966775  0.48495050  0.84326025  1
  O  O24  1  0.62207075  0.50921800  0.34642675  1
  O  O25  1  0.62207075  0.99078200  0.34642675  1
  O  O26  1  0.37792925  0.00921800  0.65357325  1
  O  O27  1  0.37792925  0.49078200  0.65357325  1
