# generated using pymatgen
data_Li4Co3Cu3(WO8)2
_symmetry_space_group_name_H-M   'P 1'
_cell_length_a   10.29951759
_cell_length_b   5.76977526
_cell_length_c   9.59259711
_cell_angle_alpha   90.00000000
_cell_angle_beta   94.21685396
_cell_angle_gamma   90.00000000
_symmetry_Int_Tables_number   1
_chemical_formula_structural   Li4Co3Cu3(WO8)2
_chemical_formula_sum   'Li8 Co6 Cu6 W4 O32'
_cell_volume   568.50554918
_cell_formula_units_Z   2
loop_
 _symmetry_equiv_pos_site_id
 _symmetry_equiv_pos_as_xyz
  1  'x, y, z'
loop_
 _atom_site_type_symbol
 _atom_site_label
 _atom_site_symmetry_multiplicity
 _atom_site_fract_x
 _atom_site_fract_y
 _atom_site_fract_z
 _atom_site_occupancy
  Li  Li0  1  0.17131500  0.50000000  0.09523500  1
  Li  Li1  1  0.49549750  0.50000000  0.00985400  1
  Li  Li2  1  0.49403600  0.50000000  0.51151100  1
  Li  Li3  1  0.34406100  0.00000000  0.59043900  1
  Li  Li4  1  0.67131500  0.00000000  0.09523500  1
  Li  Li5  1  0.99549750  0.00000000  0.00985400  1
  Li  Li6  1  0.99403600  0.00000000  0.51151100  1
  Li  Li7  1  0.84406100  0.50000000  0.59043900  1
  Co  Co8  1  0.32976350  0.50000000  0.78349900  1
  Co  Co9  1  0.41337200  0.24627900  0.28679200  1
  Co  Co10  1  0.41337200  0.75372100  0.28679200  1
  Co  Co11  1  0.82976350  0.00000000  0.78349900  1
  Co  Co12  1  0.91337200  0.74627900  0.28679200  1
  Co  Co13  1  0.91337200  0.25372100  0.28679200  1
  Cu  Cu14  1  0.08136900  0.74305600  0.78627100  1
  Cu  Cu15  1  0.08136900  0.25694400  0.78627100  1
  Cu  Cu16  1  0.16692800  0.00000000  0.28549100  1
  Cu  Cu17  1  0.58136900  0.24305600  0.78627100  1
  Cu  Cu18  1  0.58136900  0.75694400  0.78627100  1
  Cu  Cu19  1  0.66692800  0.50000000  0.28549100  1
  W  W20  1  0.17701400  0.50000000  0.50755700  1
  W  W21  1  0.33071000  0.00000000  0.01480500  1
  W  W22  1  0.67701400  0.00000000  0.50755700  1
  W  W23  1  0.83071000  0.50000000  0.01480500  1
  O  O24  1  0.08008650  0.74537850  0.41325500  1
  O  O25  1  0.02967400  0.50000000  0.64291100  1
  O  O26  1  0.17456800  0.50000000  0.87660300  1
  O  O27  1  0.49179600  0.50000000  0.70503800  1
  O  O28  1  0.49183250  0.50000000  0.19883600  1
  O  O29  1  0.08008650  0.25462150  0.41325500  1
  O  O30  1  0.26216950  0.71353950  0.64368900  1
  O  O31  1  0.26216950  0.28646050  0.64368900  1
  O  O32  1  0.16062350  0.00000000  0.92469300  1
  O  O33  1  0.32910250  0.50000000  0.39175400  1
  O  O34  1  0.26683250  0.22845550  0.15625100  1
  O  O35  1  0.26683250  0.77154450  0.15625100  1
  O  O36  1  0.33839500  0.00000000  0.38240100  1
  O  O37  1  0.39807000  0.24810600  0.91498900  1
  O  O38  1  0.47858900  0.00000000  0.17029300  1
  O  O39  1  0.39807000  0.75189400  0.91498900  1
  O  O40  1  0.58008650  0.24537850  0.41325500  1
  O  O41  1  0.52967400  0.00000000  0.64291100  1
  O  O42  1  0.67456800  0.00000000  0.87660300  1
  O  O43  1  0.99179600  0.00000000  0.70503800  1
  O  O44  1  0.99183250  0.00000000  0.19883600  1
  O  O45  1  0.58008650  0.75462150  0.41325500  1
  O  O46  1  0.76216950  0.21353950  0.64368900  1
  O  O47  1  0.76216950  0.78646050  0.64368900  1
  O  O48  1  0.66062350  0.50000000  0.92469300  1
  O  O49  1  0.82910250  0.00000000  0.39175400  1
  O  O50  1  0.76683250  0.72845550  0.15625100  1
  O  O51  1  0.76683250  0.27154450  0.15625100  1
  O  O52  1  0.83839500  0.50000000  0.38240100  1
  O  O53  1  0.89807000  0.74810600  0.91498900  1
  O  O54  1  0.97858900  0.50000000  0.17029300  1
  O  O55  1  0.89807000  0.25189400  0.91498900  1
