# generated using pymatgen
data_Co5BiO12
_symmetry_space_group_name_H-M   'P 1'
_cell_length_a   5.07559400
_cell_length_b   8.81534800
_cell_length_c   9.44287912
_cell_angle_alpha   90.00000000
_cell_angle_beta   90.30989294
_cell_angle_gamma   90.00000000
_symmetry_Int_Tables_number   1
_chemical_formula_structural   Co5BiO12
_chemical_formula_sum   'Co10 Bi2 O24'
_cell_volume   422.49776373
_cell_formula_units_Z   2
loop_
 _symmetry_equiv_pos_site_id
 _symmetry_equiv_pos_as_xyz
  1  'x, y, z'
loop_
 _atom_site_type_symbol
 _atom_site_label
 _atom_site_symmetry_multiplicity
 _atom_site_fract_x
 _atom_site_fract_y
 _atom_site_fract_z
 _atom_site_occupancy
  Co  Co0  1  0.00000000  0.83345800  0.50000000  1
  Co  Co1  1  0.50000000  0.83322800  0.00000000  1
  Co  Co2  1  0.00000000  0.66677200  0.00000000  1
  Co  Co3  1  0.50000000  0.66654200  0.50000000  1
  Co  Co4  1  0.50000000  0.00000000  0.50000000  1
  Co  Co5  1  0.50000000  0.33345800  0.50000000  1
  Co  Co6  1  0.00000000  0.33322800  0.00000000  1
  Co  Co7  1  0.50000000  0.16677200  0.00000000  1
  Co  Co8  1  0.00000000  0.16654200  0.50000000  1
  Co  Co9  1  0.00000000  0.50000000  0.50000000  1
  Bi  Bi10  1  0.00000000  0.00000000  0.00000000  1
  Bi  Bi11  1  0.50000000  0.50000000  0.00000000  1
  O  O12  1  0.18338800  0.81550200  0.89307100  1
  O  O13  1  0.81661200  0.81550200  0.10692900  1
  O  O14  1  0.16791500  0.66633400  0.59434600  1
  O  O15  1  0.66791500  0.83366600  0.59434600  1
  O  O16  1  0.83208500  0.66633400  0.40565400  1
  O  O17  1  0.83331000  0.00000000  0.40480400  1
  O  O18  1  0.33208500  0.83366600  0.40565400  1
  O  O19  1  0.68338800  0.68449800  0.89307100  1
  O  O20  1  0.62952800  0.00000000  0.89267100  1
  O  O21  1  0.31661200  0.68449800  0.10692900  1
  O  O22  1  0.37047200  0.00000000  0.10732900  1
  O  O23  1  0.16669000  0.00000000  0.59519600  1
  O  O24  1  0.68338800  0.31550200  0.89307100  1
  O  O25  1  0.31661200  0.31550200  0.10692900  1
  O  O26  1  0.66791500  0.16633400  0.59434600  1
  O  O27  1  0.16791500  0.33366600  0.59434600  1
  O  O28  1  0.33208500  0.16633400  0.40565400  1
  O  O29  1  0.33331000  0.50000000  0.40480400  1
  O  O30  1  0.83208500  0.33366600  0.40565400  1
  O  O31  1  0.18338800  0.18449800  0.89307100  1
  O  O32  1  0.12952800  0.50000000  0.89267100  1
  O  O33  1  0.81661200  0.18449800  0.10692900  1
  O  O34  1  0.87047200  0.50000000  0.10732900  1
  O  O35  1  0.66669000  0.50000000  0.59519600  1
