# generated using pymatgen
data_Mn6O11F
_symmetry_space_group_name_H-M   'P 1'
_cell_length_a   6.42175600
_cell_length_b   18.93548600
_cell_length_c   2.96935400
_cell_angle_alpha   90.00000000
_cell_angle_beta   90.00000000
_cell_angle_gamma   90.00000000
_symmetry_Int_Tables_number   1
_chemical_formula_structural   Mn6O11F
_chemical_formula_sum   'Mn12 O22 F2'
_cell_volume   361.07068738
_cell_formula_units_Z   2
loop_
 _symmetry_equiv_pos_site_id
 _symmetry_equiv_pos_as_xyz
  1  'x, y, z'
loop_
 _atom_site_type_symbol
 _atom_site_label
 _atom_site_symmetry_multiplicity
 _atom_site_fract_x
 _atom_site_fract_y
 _atom_site_fract_z
 _atom_site_occupancy
  Mn  Mn0  1  0.66528150  0.33317050  0.00000000  1
  Mn  Mn1  1  0.66709000  0.16691800  0.50000000  1
  Mn  Mn2  1  0.16709000  0.33308200  0.50000000  1
  Mn  Mn3  1  0.67873400  0.00000000  0.00000000  1
  Mn  Mn4  1  0.16528150  0.16682950  0.00000000  1
  Mn  Mn5  1  0.15082700  0.00000000  0.50000000  1
  Mn  Mn6  1  0.16528150  0.83317050  0.00000000  1
  Mn  Mn7  1  0.16709000  0.66691800  0.50000000  1
  Mn  Mn8  1  0.66709000  0.83308200  0.50000000  1
  Mn  Mn9  1  0.17873400  0.50000000  0.00000000  1
  Mn  Mn10  1  0.66528150  0.66682950  0.00000000  1
  Mn  Mn11  1  0.65082700  0.50000000  0.50000000  1
  O  O12  1  0.66685250  0.26867550  0.50000000  1
  O  O13  1  0.97242500  0.33371100  0.00000000  1
  O  O14  1  0.86138850  0.16615750  0.00000000  1
  O  O15  1  0.36138850  0.33384250  0.00000000  1
  O  O16  1  0.66404950  0.06457050  0.50000000  1
  O  O17  1  0.16685250  0.23132450  0.50000000  1
  O  O18  1  0.17051450  0.10103350  0.50000000  1
  O  O19  1  0.16404950  0.43542950  0.50000000  1
  O  O20  1  0.96833100  0.00000000  0.00000000  1
  O  O21  1  0.47242500  0.16628900  0.00000000  1
  O  O22  1  0.67051450  0.39896650  0.50000000  1
  O  O23  1  0.16685250  0.76867550  0.50000000  1
  O  O24  1  0.47242500  0.83371100  0.00000000  1
  O  O25  1  0.36138850  0.66615750  0.00000000  1
  O  O26  1  0.86138850  0.83384250  0.00000000  1
  O  O27  1  0.16404950  0.56457050  0.50000000  1
  O  O28  1  0.66685250  0.73132450  0.50000000  1
  O  O29  1  0.67051450  0.60103350  0.50000000  1
  O  O30  1  0.66404950  0.93542950  0.50000000  1
  O  O31  1  0.46833100  0.50000000  0.00000000  1
  O  O32  1  0.97242500  0.66628900  0.00000000  1
  O  O33  1  0.17051450  0.89896650  0.50000000  1
  F  F34  1  0.36670500  0.00000000  0.00000000  1
  F  F35  1  0.86670500  0.50000000  0.00000000  1
