# generated using pymatgen
data_LiMn2O3F
_symmetry_space_group_name_H-M   'P 1'
_cell_length_a   6.11150000
_cell_length_b   8.53021400
_cell_length_c   11.90123200
_cell_angle_alpha   90.00000000
_cell_angle_beta   90.00000000
_cell_angle_gamma   90.00000000
_symmetry_Int_Tables_number   1
_chemical_formula_structural   LiMn2O3F
_chemical_formula_sum   'Li8 Mn16 O24 F8'
_cell_volume   620.43982117
_cell_formula_units_Z   8
loop_
 _symmetry_equiv_pos_site_id
 _symmetry_equiv_pos_as_xyz
  1  'x, y, z'
loop_
 _atom_site_type_symbol
 _atom_site_label
 _atom_site_symmetry_multiplicity
 _atom_site_fract_x
 _atom_site_fract_y
 _atom_site_fract_z
 _atom_site_occupancy
  Li  Li0  1  0.50000000  0.60150000  0.62270650  1
  Li  Li1  1  0.50000000  0.60150000  0.37729350  1
  Li  Li2  1  0.50000000  0.38817850  0.12888200  1
  Li  Li3  1  0.50000000  0.38817850  0.87111800  1
  Li  Li4  1  0.00000000  0.10150000  0.12270650  1
  Li  Li5  1  0.00000000  0.10150000  0.87729350  1
  Li  Li6  1  0.00000000  0.88817850  0.62888200  1
  Li  Li7  1  0.00000000  0.88817850  0.37111800  1
  Mn  Mn8  1  0.00000000  0.51426750  0.50000000  1
  Mn  Mn9  1  0.00000000  0.50743100  0.75010350  1
  Mn  Mn10  1  0.00000000  0.50743100  0.24989650  1
  Mn  Mn11  1  0.25690800  0.25124100  0.62429350  1
  Mn  Mn12  1  0.74309200  0.25124100  0.62429350  1
  Mn  Mn13  1  0.25690800  0.25124100  0.37570650  1
  Mn  Mn14  1  0.74309200  0.25124100  0.37570650  1
  Mn  Mn15  1  0.50000000  0.98696950  0.50000000  1
  Mn  Mn16  1  0.50000000  0.01426750  0.00000000  1
  Mn  Mn17  1  0.50000000  0.00743100  0.25010350  1
  Mn  Mn18  1  0.50000000  0.00743100  0.74989650  1
  Mn  Mn19  1  0.75690800  0.75124100  0.12429350  1
  Mn  Mn20  1  0.24309200  0.75124100  0.12429350  1
  Mn  Mn21  1  0.75690800  0.75124100  0.87570650  1
  Mn  Mn22  1  0.24309200  0.75124100  0.87570650  1
  Mn  Mn23  1  0.00000000  0.48696950  0.00000000  1
  O  O24  1  0.21236200  0.47945500  0.62689250  1
  O  O25  1  0.21236200  0.47945500  0.37310750  1
  O  O26  1  0.78763800  0.47945500  0.62689250  1
  O  O27  1  0.78763800  0.47945500  0.37310750  1
  O  O28  1  0.00000000  0.24699450  0.50000000  1
  O  O29  1  0.50000000  0.25857850  0.26625300  1
  O  O30  1  0.50000000  0.25857850  0.73374700  1
  O  O31  1  0.50000000  0.25804150  0.50000000  1
  O  O32  1  0.21417150  0.52133650  0.12514200  1
  O  O33  1  0.21417150  0.52133650  0.87485800  1
  O  O34  1  0.78582850  0.52133650  0.12514200  1
  O  O35  1  0.78582850  0.52133650  0.87485800  1
  O  O36  1  0.71236200  0.97945500  0.12689250  1
  O  O37  1  0.71236200  0.97945500  0.87310750  1
  O  O38  1  0.28763800  0.97945500  0.12689250  1
  O  O39  1  0.28763800  0.97945500  0.87310750  1
  O  O40  1  0.50000000  0.74699450  0.00000000  1
  O  O41  1  0.00000000  0.75857850  0.76625300  1
  O  O42  1  0.00000000  0.75857850  0.23374700  1
  O  O43  1  0.00000000  0.75804150  0.00000000  1
  O  O44  1  0.71417150  0.02133650  0.62514200  1
  O  O45  1  0.71417150  0.02133650  0.37485800  1
  O  O46  1  0.28582850  0.02133650  0.62514200  1
  O  O47  1  0.28582850  0.02133650  0.37485800  1
  F  F48  1  0.50000000  0.73960250  0.50000000  1
  F  F49  1  0.50000000  0.73844050  0.24991100  1
  F  F50  1  0.50000000  0.73844050  0.75008900  1
  F  F51  1  0.00000000  0.75772450  0.50000000  1
  F  F52  1  0.00000000  0.23960250  0.00000000  1
  F  F53  1  0.00000000  0.23844050  0.74991100  1
  F  F54  1  0.00000000  0.23844050  0.25008900  1
  F  F55  1  0.50000000  0.25772450  0.00000000  1
