# generated using pymatgen
data_Li3V3P8O29
_symmetry_space_group_name_H-M   'P 1'
_cell_length_a   16.81897200
_cell_length_b   9.74878800
_cell_length_c   14.12621518
_cell_angle_alpha   90.00000000
_cell_angle_beta   90.44244795
_cell_angle_gamma   90.00000000
_symmetry_Int_Tables_number   1
_chemical_formula_structural   Li3V3P8O29
_chemical_formula_sum   'Li12 V12 P32 O116'
_cell_volume   2316.13005562
_cell_formula_units_Z   4
loop_
 _symmetry_equiv_pos_site_id
 _symmetry_equiv_pos_as_xyz
  1  'x, y, z'
loop_
 _atom_site_type_symbol
 _atom_site_label
 _atom_site_symmetry_multiplicity
 _atom_site_fract_x
 _atom_site_fract_y
 _atom_site_fract_z
 _atom_site_occupancy
  Li  Li0  1  0.45128800  0.78111600  0.94487900  1
  Li  Li1  1  0.54871200  0.78111600  0.55512100  1
  Li  Li2  1  0.45128800  0.21888400  0.44487900  1
  Li  Li3  1  0.54871200  0.21888400  0.05512100  1
  Li  Li4  1  0.00000000  0.00000000  0.00000000  1
  Li  Li5  1  0.00000000  0.00000000  0.50000000  1
  Li  Li6  1  0.95128800  0.28111600  0.94487900  1
  Li  Li7  1  0.04871200  0.28111600  0.55512100  1
  Li  Li8  1  0.95128800  0.71888400  0.44487900  1
  Li  Li9  1  0.04871200  0.71888400  0.05512100  1
  Li  Li10  1  0.50000000  0.50000000  0.00000000  1
  Li  Li11  1  0.50000000  0.50000000  0.50000000  1
  V  V12  1  0.50000000  0.93490100  0.75000000  1
  V  V13  1  0.50000000  0.06509900  0.25000000  1
  V  V14  1  0.21891900  0.21622300  0.24533100  1
  V  V15  1  0.78108100  0.78377700  0.75466900  1
  V  V16  1  0.21891900  0.78377700  0.74533100  1
  V  V17  1  0.78108100  0.21622300  0.25466900  1
  V  V18  1  0.00000000  0.43490100  0.75000000  1
  V  V19  1  0.00000000  0.56509900  0.25000000  1
  V  V20  1  0.71891900  0.71622300  0.24533100  1
  V  V21  1  0.28108100  0.28377700  0.75466900  1
  V  V22  1  0.71891900  0.28377700  0.74533100  1
  V  V23  1  0.28108100  0.71622300  0.25466900  1
  P  P24  1  0.15273150  0.92940150  0.15996000  1
  P  P25  1  0.15273150  0.07059850  0.65996000  1
  P  P26  1  0.38977050  0.69298450  0.65325300  1
  P  P27  1  0.33370500  0.99835000  0.86843000  1
  P  P28  1  0.33370500  0.00165000  0.36843000  1
  P  P29  1  0.45334400  0.76808300  0.16017800  1
  P  P30  1  0.54665600  0.76808300  0.33982200  1
  P  P31  1  0.38977050  0.30701550  0.15325300  1
  P  P32  1  0.61022950  0.69298450  0.84674700  1
  P  P33  1  0.45334400  0.23191700  0.66017800  1
  P  P34  1  0.54665600  0.23191700  0.83982200  1
  P  P35  1  0.66629500  0.99835000  0.63157000  1
  P  P36  1  0.66629500  0.00165000  0.13157000  1
  P  P37  1  0.61022950  0.30701550  0.34674700  1
  P  P38  1  0.84726850  0.92940150  0.34004000  1
  P  P39  1  0.84726850  0.07059850  0.84004000  1
  P  P40  1  0.65273150  0.42940150  0.15996000  1
  P  P41  1  0.65273150  0.57059850  0.65996000  1
  P  P42  1  0.88977050  0.19298450  0.65325300  1
  P  P43  1  0.83370500  0.49835000  0.86843000  1
  P  P44  1  0.83370500  0.50165000  0.36843000  1
  P  P45  1  0.95334400  0.26808300  0.16017800  1
  P  P46  1  0.04665600  0.26808300  0.33982200  1
  P  P47  1  0.88977050  0.80701550  0.15325300  1
  P  P48  1  0.11022950  0.19298450  0.84674700  1
  P  P49  1  0.95334400  0.73191700  0.66017800  1
  P  P50  1  0.04665600  0.73191700  0.83982200  1
  P  P51  1  0.16629500  0.49835000  0.63157000  1
  P  P52  1  0.16629500  0.50165000  0.13157000  1
  P  P53  1  0.11022950  0.80701550  0.34674700  1
  P  P54  1  0.34726850  0.42940150  0.34004000  1
  P  P55  1  0.34726850  0.57059850  0.84004000  1
  O  O56  1  0.59978450  0.39120850  0.43256100  1
  O  O57  1  0.17211350  0.91483150  0.66458300  1
  O  O58  1  0.59978450  0.60879150  0.93256100  1
  O  O59  1  0.17211350  0.08516850  0.16458300  1
  O  O60  1  0.23122250  0.84843350  0.17352300  1
  O  O61  1  0.26134750  0.92495650  0.81956300  1
  O  O62  1  0.30976550  0.77127550  0.66714500  1
  O  O63  1  0.39673550  0.60907150  0.92380800  1
  O  O64  1  0.36757650  0.71443850  0.16995600  1
  O  O65  1  0.26134750  0.07504350  0.31956300  1
  O  O66  1  0.23122250  0.15156650  0.67352300  1
  O  O67  1  0.33344650  0.85411250  0.32478500  1
  O  O68  1  0.33797600  0.99011500  0.97307300  1
  O  O69  1  0.33797600  0.00988500  0.47307300  1
  O  O70  1  0.40918150  0.92063750  0.82599100  1
  O  O71  1  0.30976550  0.22872450  0.16714500  1
  O  O72  1  0.33344650  0.14588750  0.82478500  1
  O  O73  1  0.45905350  0.80110950  0.66274900  1
  O  O74  1  0.50000000  0.70405500  0.25000000  1
  O  O75  1  0.50900150  0.72686750  0.43025600  1
  O  O76  1  0.49099850  0.72686750  0.06974400  1
  O  O77  1  0.45379850  0.92654650  0.17609300  1
  O  O78  1  0.40918150  0.07936250  0.32599100  1
  O  O79  1  0.54094650  0.80110950  0.83725100  1
  O  O80  1  0.45379850  0.07345350  0.67609300  1
  O  O81  1  0.36757650  0.28556150  0.66995600  1
  O  O82  1  0.10052150  0.09970650  0.75330100  1
  O  O83  1  0.60326450  0.60907150  0.57619200  1
  O  O84  1  0.39673550  0.39092850  0.42380800  1
  O  O85  1  0.63242350  0.71443850  0.33004400  1
  O  O86  1  0.54620150  0.92654650  0.32390700  1
  O  O87  1  0.45905350  0.19889050  0.16274900  1
  O  O88  1  0.59081850  0.92063750  0.67400900  1
  O  O89  1  0.54620150  0.07345350  0.82390700  1
  O  O90  1  0.50900150  0.27313250  0.93025600  1
  O  O91  1  0.49099850  0.27313250  0.56974400  1
  O  O92  1  0.50000000  0.29594500  0.75000000  1
  O  O93  1  0.54094650  0.19889050  0.33725100  1
  O  O94  1  0.66655350  0.85411250  0.17521500  1
  O  O95  1  0.69023450  0.77127550  0.83285500  1
  O  O96  1  0.59081850  0.07936250  0.17400900  1
  O  O97  1  0.66202400  0.00988500  0.02692700  1
  O  O98  1  0.66202400  0.99011500  0.52692700  1
  O  O99  1  0.66655350  0.14588750  0.67521500  1
  O  O100  1  0.76877750  0.84843350  0.32647700  1
  O  O101  1  0.73865250  0.92495650  0.68043700  1
  O  O102  1  0.63242350  0.28556150  0.83004400  1
  O  O103  1  0.10052150  0.90029350  0.25330100  1
  O  O104  1  0.60326450  0.39092850  0.07619200  1
  O  O105  1  0.69023450  0.22872450  0.33285500  1
  O  O106  1  0.73865250  0.07504350  0.18043700  1
  O  O107  1  0.76877750  0.15156650  0.82647700  1
  O  O108  1  0.82788650  0.91483150  0.83541700  1
  O  O109  1  0.40021550  0.39120850  0.06743900  1
  O  O110  1  0.89947850  0.90029350  0.24669900  1
  O  O111  1  0.82788650  0.08516850  0.33541700  1
  O  O112  1  0.40021550  0.60879150  0.56743900  1
  O  O113  1  0.89947850  0.09970650  0.74669900  1
  O  O114  1  0.09978450  0.89120850  0.43256100  1
  O  O115  1  0.67211350  0.41483150  0.66458300  1
  O  O116  1  0.09978450  0.10879150  0.93256100  1
  O  O117  1  0.67211350  0.58516850  0.16458300  1
  O  O118  1  0.73122250  0.34843350  0.17352300  1
  O  O119  1  0.76134750  0.42495650  0.81956300  1
  O  O120  1  0.80976550  0.27127550  0.66714500  1
  O  O121  1  0.89673550  0.10907150  0.92380800  1
  O  O122  1  0.86757650  0.21443850  0.16995600  1
  O  O123  1  0.76134750  0.57504350  0.31956300  1
  O  O124  1  0.73122250  0.65156650  0.67352300  1
  O  O125  1  0.83344650  0.35411250  0.32478500  1
  O  O126  1  0.83797600  0.49011500  0.97307300  1
  O  O127  1  0.83797600  0.50988500  0.47307300  1
  O  O128  1  0.90918150  0.42063750  0.82599100  1
  O  O129  1  0.80976550  0.72872450  0.16714500  1
  O  O130  1  0.83344650  0.64588750  0.82478500  1
  O  O131  1  0.95905350  0.30110950  0.66274900  1
  O  O132  1  0.00000000  0.20405500  0.25000000  1
  O  O133  1  0.00900150  0.22686750  0.43025600  1
  O  O134  1  0.99099850  0.22686750  0.06974400  1
  O  O135  1  0.95379850  0.42654650  0.17609300  1
  O  O136  1  0.90918150  0.57936250  0.32599100  1
  O  O137  1  0.04094650  0.30110950  0.83725100  1
  O  O138  1  0.95379850  0.57345350  0.67609300  1
  O  O139  1  0.86757650  0.78556150  0.66995600  1
  O  O140  1  0.60052150  0.59970650  0.75330100  1
  O  O141  1  0.10326450  0.10907150  0.57619200  1
  O  O142  1  0.89673550  0.89092850  0.42380800  1
  O  O143  1  0.13242350  0.21443850  0.33004400  1
  O  O144  1  0.04620150  0.42654650  0.32390700  1
  O  O145  1  0.95905350  0.69889050  0.16274900  1
  O  O146  1  0.09081850  0.42063750  0.67400900  1
  O  O147  1  0.04620150  0.57345350  0.82390700  1
  O  O148  1  0.00900150  0.77313250  0.93025600  1
  O  O149  1  0.99099850  0.77313250  0.56974400  1
  O  O150  1  0.00000000  0.79594500  0.75000000  1
  O  O151  1  0.04094650  0.69889050  0.33725100  1
  O  O152  1  0.16655350  0.35411250  0.17521500  1
  O  O153  1  0.19023450  0.27127550  0.83285500  1
  O  O154  1  0.09081850  0.57936250  0.17400900  1
  O  O155  1  0.16202400  0.50988500  0.02692700  1
  O  O156  1  0.16202400  0.49011500  0.52692700  1
  O  O157  1  0.16655350  0.64588750  0.67521500  1
  O  O158  1  0.26877750  0.34843350  0.32647700  1
  O  O159  1  0.23865250  0.42495650  0.68043700  1
  O  O160  1  0.13242350  0.78556150  0.83004400  1
  O  O161  1  0.60052150  0.40029350  0.25330100  1
  O  O162  1  0.10326450  0.89092850  0.07619200  1
  O  O163  1  0.19023450  0.72872450  0.33285500  1
  O  O164  1  0.23865250  0.57504350  0.18043700  1
  O  O165  1  0.26877750  0.65156650  0.82647700  1
  O  O166  1  0.32788650  0.41483150  0.83541700  1
  O  O167  1  0.90021550  0.89120850  0.06743900  1
  O  O168  1  0.39947850  0.40029350  0.24669900  1
  O  O169  1  0.32788650  0.58516850  0.33541700  1
  O  O170  1  0.90021550  0.10879150  0.56743900  1
  O  O171  1  0.39947850  0.59970650  0.74669900  1
