# generated using pymatgen
data_Li11Ti12(NiO8)4
_symmetry_space_group_name_H-M   'P 1'
_cell_length_a   11.92511909
_cell_length_b   11.92511909
_cell_length_c   14.56801285
_cell_angle_alpha   90.00000000
_cell_angle_beta   90.00000000
_cell_angle_gamma   120.00000000
_symmetry_Int_Tables_number   1
_chemical_formula_structural   Li11Ti12(NiO8)4
_chemical_formula_sum   'Li33 Ti36 Ni12 O96'
_cell_volume   1794.14028143
_cell_formula_units_Z   3
loop_
 _symmetry_equiv_pos_site_id
 _symmetry_equiv_pos_as_xyz
  1  'x, y, z'
loop_
 _atom_site_type_symbol
 _atom_site_label
 _atom_site_symmetry_multiplicity
 _atom_site_fract_x
 _atom_site_fract_y
 _atom_site_fract_z
 _atom_site_occupancy
  Li  Li0  1  0.00000000  0.00000000  0.12660800  1
  Li  Li1  1  0.74801800  0.00000000  0.50000000  1
  Li  Li2  1  0.74844900  0.74844900  0.50000000  1
  Li  Li3  1  0.16870967  0.83537633  0.33333333  1
  Li  Li4  1  0.00000000  0.74801800  0.50000000  1
  Li  Li5  1  0.00000000  0.25155100  0.50000000  1
  Li  Li6  1  0.16462367  0.33333333  0.33333333  1
  Li  Li7  1  0.25155100  0.00000000  0.50000000  1
  Li  Li8  1  0.25198200  0.25198200  0.50000000  1
  Li  Li9  1  0.00000000  0.00000000  0.87339200  1
  Li  Li10  1  0.66666667  0.83129033  0.33333333  1
  Li  Li11  1  0.66666667  0.33333333  0.45994133  1
  Li  Li12  1  0.41468467  0.33333333  0.83333333  1
  Li  Li13  1  0.41511567  0.08178233  0.83333333  1
  Li  Li14  1  0.83537633  0.16870967  0.66666667  1
  Li  Li15  1  0.66666667  0.08135133  0.83333333  1
  Li  Li16  1  0.66666667  0.58488433  0.83333333  1
  Li  Li17  1  0.83129033  0.66666667  0.66666667  1
  Li  Li18  1  0.91821767  0.33333333  0.83333333  1
  Li  Li19  1  0.91864867  0.58531533  0.83333333  1
  Li  Li20  1  0.66666667  0.33333333  0.20672533  1
  Li  Li21  1  0.33333333  0.16462367  0.66666667  1
  Li  Li22  1  0.33333333  0.66666667  0.79327467  1
  Li  Li23  1  0.08135133  0.66666667  0.16666667  1
  Li  Li24  1  0.08178233  0.41511567  0.16666667  1
  Li  Li25  1  0.50204300  0.50204300  0.00000000  1
  Li  Li26  1  0.33333333  0.41468467  0.16666667  1
  Li  Li27  1  0.33333333  0.91821767  0.16666667  1
  Li  Li28  1  0.49795700  0.00000000  0.00000000  1
  Li  Li29  1  0.58488433  0.66666667  0.16666667  1
  Li  Li30  1  0.58531533  0.91864867  0.16666667  1
  Li  Li31  1  0.33333333  0.66666667  0.54005867  1
  Li  Li32  1  0.00000000  0.49795700  0.00000000  1
  Ti  Ti33  1  0.90735067  0.57401733  0.33333333  1
  Ti  Ti34  1  0.91429033  0.83121367  0.32837567  1
  Ti  Ti35  1  0.91692333  0.08570967  0.32837567  1
  Ti  Ti36  1  0.83121367  0.91429033  0.67162433  1
  Ti  Ti37  1  0.00000000  0.49798200  0.50000000  1
  Ti  Ti38  1  0.16878633  0.08307667  0.32837567  1
  Ti  Ti39  1  0.08307667  0.16878633  0.67162433  1
  Ti  Ti40  1  0.08570967  0.91692333  0.67162433  1
  Ti  Ti41  1  0.42598267  0.33333333  0.33333333  1
  Ti  Ti42  1  0.49798200  0.00000000  0.50000000  1
  Ti  Ti43  1  0.66666667  0.09264933  0.33333333  1
  Ti  Ti44  1  0.50201800  0.50201800  0.50000000  1
  Ti  Ti45  1  0.57401733  0.90735067  0.66666667  1
  Ti  Ti46  1  0.58095700  0.16454700  0.66170900  1
  Ti  Ti47  1  0.58359000  0.41904300  0.66170900  1
  Ti  Ti48  1  0.49788033  0.24762367  0.00495767  1
  Ti  Ti49  1  0.66666667  0.83131533  0.83333333  1
  Ti  Ti50  1  0.83545300  0.41641000  0.66170900  1
  Ti  Ti51  1  0.74974333  0.50211967  0.00495767  1
  Ti  Ti52  1  0.75237633  0.25025667  0.00495767  1
  Ti  Ti53  1  0.09264933  0.66666667  0.66666667  1
  Ti  Ti54  1  0.16464867  0.33333333  0.83333333  1
  Ti  Ti55  1  0.33333333  0.42598267  0.66666667  1
  Ti  Ti56  1  0.16868467  0.83535133  0.83333333  1
  Ti  Ti57  1  0.24068400  0.24068400  0.00000000  1
  Ti  Ti58  1  0.24762367  0.49788033  0.99504233  1
  Ti  Ti59  1  0.25025667  0.75237633  0.99504233  1
  Ti  Ti60  1  0.16454700  0.58095700  0.33829100  1
  Ti  Ti61  1  0.33333333  0.16464867  0.16666667  1
  Ti  Ti62  1  0.50211967  0.74974333  0.99504233  1
  Ti  Ti63  1  0.41641000  0.83545300  0.33829100  1
  Ti  Ti64  1  0.41904300  0.58359000  0.33829100  1
  Ti  Ti65  1  0.75931600  0.00000000  0.00000000  1
  Ti  Ti66  1  0.83131533  0.66666667  0.16666667  1
  Ti  Ti67  1  0.00000000  0.75931600  0.00000000  1
  Ti  Ti68  1  0.83535133  0.16868467  0.16666667  1
  Ni  Ni69  1  0.91215667  0.33333333  0.33333333  1
  Ni  Ni70  1  0.00000000  0.00000000  0.50000000  1
  Ni  Ni71  1  0.42117667  0.08784333  0.33333333  1
  Ni  Ni72  1  0.66666667  0.57882333  0.33333333  1
  Ni  Ni73  1  0.57882333  0.66666667  0.66666667  1
  Ni  Ni74  1  0.66666667  0.33333333  0.83333333  1
  Ni  Ni75  1  0.08784333  0.42117667  0.66666667  1
  Ni  Ni76  1  0.33333333  0.91215667  0.66666667  1
  Ni  Ni77  1  0.24549000  0.00000000  0.00000000  1
  Ni  Ni78  1  0.33333333  0.66666667  0.16666667  1
  Ni  Ni79  1  0.75451000  0.75451000  0.00000000  1
  Ni  Ni80  1  0.00000000  0.24549000  0.00000000  1
  O  O81  1  0.84592100  0.67638700  0.40602000  1
  O  O82  1  0.98606900  0.73940200  0.25474000  1
  O  O83  1  0.83046600  0.15407900  0.40602000  1
  O  O84  1  0.98663600  0.24474200  0.25241700  1
  O  O85  1  0.67638700  0.84592100  0.59398000  1
  O  O86  1  0.51462200  0.76446100  0.74911500  1
  O  O87  1  0.00000000  0.00000000  0.26087500  1
  O  O88  1  0.84247167  0.91888933  0.40735633  1
  O  O89  1  0.74189400  0.75525800  0.74758300  1
  O  O90  1  0.73940200  0.98606900  0.74526000  1
  O  O91  1  0.08111067  0.92358233  0.40735633  1
  O  O92  1  0.07641767  0.15752833  0.40735633  1
  O  O93  1  0.92358233  0.08111067  0.59264367  1
  O  O94  1  0.91888933  0.84247167  0.59264367  1
  O  O95  1  0.26059800  0.24666700  0.25474000  1
  O  O96  1  0.25810600  0.01336400  0.25241700  1
  O  O97  1  0.15752833  0.07641767  0.59264367  1
  O  O98  1  0.00000000  0.00000000  0.73912500  1
  O  O99  1  0.48537800  0.24983900  0.25088500  1
  O  O100  1  0.32361300  0.16953400  0.40602000  1
  O  O101  1  0.01336400  0.25810600  0.74758300  1
  O  O102  1  0.16953400  0.32361300  0.59398000  1
  O  O103  1  0.01393100  0.75333300  0.74526000  1
  O  O104  1  0.15407900  0.83046600  0.59398000  1
  O  O105  1  0.24983900  0.48537800  0.74911500  1
  O  O106  1  0.24666700  0.26059800  0.74526000  1
  O  O107  1  0.24474200  0.98663600  0.74758300  1
  O  O108  1  0.23553900  0.75016100  0.74911500  1
  O  O109  1  0.76446100  0.51462200  0.25088500  1
  O  O110  1  0.75525800  0.74189400  0.25241700  1
  O  O111  1  0.75333300  0.01393100  0.25474000  1
  O  O112  1  0.75016100  0.23553900  0.25088500  1
  O  O113  1  0.51258767  0.00972033  0.73935333  1
  O  O114  1  0.65273567  0.07273533  0.58807333  1
  O  O115  1  0.49713267  0.48741233  0.73935333  1
  O  O116  1  0.65330267  0.57807533  0.58575033  1
  O  O117  1  0.34305367  0.17925433  0.92731333  1
  O  O118  1  0.18128867  0.09779433  0.08244833  1
  O  O119  1  0.66666667  0.33333333  0.59420833  1
  O  O120  1  0.50913833  0.25222267  0.74068967  1
  O  O121  1  0.40856067  0.08859133  0.08091633  1
  O  O122  1  0.40606867  0.31940233  0.07859333  1
  O  O123  1  0.74777733  0.25691567  0.74068967  1
  O  O124  1  0.74308433  0.49086167  0.74068967  1
  O  O125  1  0.59024900  0.41444400  0.92597700  1
  O  O126  1  0.58555600  0.17580500  0.92597700  1
  O  O127  1  0.92726467  0.58000033  0.58807333  1
  O  O128  1  0.92477267  0.34669733  0.58575033  1
  O  O129  1  0.82419500  0.40975100  0.92597700  1
  O  O130  1  0.66666667  0.33333333  0.07245833  1
  O  O131  1  0.15204467  0.58317233  0.58421833  1
  O  O132  1  0.99027967  0.50286733  0.73935333  1
  O  O133  1  0.68003067  0.59143933  0.08091633  1
  O  O134  1  0.83620067  0.65694633  0.92731333  1
  O  O135  1  0.68059767  0.08666633  0.07859333  1
  O  O136  1  0.82074567  0.16379933  0.92731333  1
  O  O137  1  0.91650567  0.81871133  0.08244833  1
  O  O138  1  0.91333367  0.59393133  0.07859333  1
  O  O139  1  0.91140867  0.31996933  0.08091633  1
  O  O140  1  0.90220567  0.08349433  0.08244833  1
  O  O141  1  0.43112767  0.84795533  0.58421833  1
  O  O142  1  0.42192467  0.07522733  0.58575033  1
  O  O143  1  0.41999967  0.34726433  0.58807333  1
  O  O144  1  0.41682767  0.56887233  0.58421833  1
  O  O145  1  0.17925433  0.34305367  0.07268667  1
  O  O146  1  0.31940233  0.40606867  0.92140667  1
  O  O147  1  0.16379933  0.82074567  0.07268667  1
  O  O148  1  0.31996933  0.91140867  0.91908367  1
  O  O149  1  0.00972033  0.51258767  0.26064667  1
  O  O150  1  0.84795533  0.43112767  0.41578167  1
  O  O151  1  0.33333333  0.66666667  0.92754167  1
  O  O152  1  0.17580500  0.58555600  0.07402300  1
  O  O153  1  0.07522733  0.42192467  0.41424967  1
  O  O154  1  0.07273533  0.65273567  0.41192667  1
  O  O155  1  0.41444400  0.59024900  0.07402300  1
  O  O156  1  0.40975100  0.82419500  0.07402300  1
  O  O157  1  0.25691567  0.74777733  0.25931033  1
  O  O158  1  0.25222267  0.50913833  0.25931033  1
  O  O159  1  0.59393133  0.91333367  0.92140667  1
  O  O160  1  0.59143933  0.68003067  0.91908367  1
  O  O161  1  0.49086167  0.74308433  0.25931033  1
  O  O162  1  0.33333333  0.66666667  0.40579167  1
  O  O163  1  0.81871133  0.91650567  0.91755167  1
  O  O164  1  0.65694633  0.83620067  0.07268667  1
  O  O165  1  0.34669733  0.92477267  0.41424967  1
  O  O166  1  0.50286733  0.99027967  0.26064667  1
  O  O167  1  0.34726433  0.41999967  0.41192667  1
  O  O168  1  0.48741233  0.49713267  0.26064667  1
  O  O169  1  0.58317233  0.15204467  0.41578167  1
  O  O170  1  0.58000033  0.92726467  0.41192667  1
  O  O171  1  0.57807533  0.65330267  0.41424967  1
  O  O172  1  0.56887233  0.41682767  0.41578167  1
  O  O173  1  0.09779433  0.18128867  0.91755167  1
  O  O174  1  0.08859133  0.40856067  0.91908367  1
  O  O175  1  0.08666633  0.68059767  0.92140667  1
  O  O176  1  0.08349433  0.90220567  0.91755167  1
