# generated using pymatgen
data_LiV2O2F3
_symmetry_space_group_name_H-M   'P 1'
_cell_length_a   9.97782800
_cell_length_b   3.95895600
_cell_length_c   10.14719125
_cell_angle_alpha   90.00000000
_cell_angle_beta   90.15101493
_cell_angle_gamma   90.00000000
_symmetry_Int_Tables_number   1
_chemical_formula_structural   LiV2O2F3
_chemical_formula_sum   'Li4 V8 O8 F12'
_cell_volume   400.83074451
_cell_formula_units_Z   4
loop_
 _symmetry_equiv_pos_site_id
 _symmetry_equiv_pos_as_xyz
  1  'x, y, z'
loop_
 _atom_site_type_symbol
 _atom_site_label
 _atom_site_symmetry_multiplicity
 _atom_site_fract_x
 _atom_site_fract_y
 _atom_site_fract_z
 _atom_site_occupancy
  Li  Li0  1  0.86858400  0.00000000  0.94591700  1
  Li  Li1  1  0.63141600  0.50000000  0.05408300  1
  Li  Li2  1  0.36858400  0.50000000  0.94591700  1
  Li  Li3  1  0.13141600  0.00000000  0.05408300  1
  V  V4  1  0.86212000  0.00000000  0.55434000  1
  V  V5  1  0.81089500  0.00000000  0.25554100  1
  V  V6  1  0.68910500  0.50000000  0.74445900  1
  V  V7  1  0.63788000  0.50000000  0.44566000  1
  V  V8  1  0.36212000  0.50000000  0.55434000  1
  V  V9  1  0.31089500  0.50000000  0.25554100  1
  V  V10  1  0.18910500  0.00000000  0.74445900  1
  V  V11  1  0.13788000  0.00000000  0.44566000  1
  O  O12  1  0.95808000  0.00000000  0.38036700  1
  O  O13  1  0.80594300  0.50000000  0.57807400  1
  O  O14  1  0.69405700  0.00000000  0.42192600  1
  O  O15  1  0.54192000  0.50000000  0.61963300  1
  O  O16  1  0.45808000  0.50000000  0.38036700  1
  O  O17  1  0.30594300  0.00000000  0.57807400  1
  O  O18  1  0.19405700  0.50000000  0.42192600  1
  O  O19  1  0.04192000  0.00000000  0.61963300  1
  F  F20  1  0.95085600  0.00000000  0.11990700  1
  F  F21  1  0.80813900  0.50000000  0.90358500  1
  F  F22  1  0.73766100  0.00000000  0.73936400  1
  F  F23  1  0.76233900  0.50000000  0.26063600  1
  F  F24  1  0.69186100  0.00000000  0.09641500  1
  F  F25  1  0.54914400  0.50000000  0.88009300  1
  F  F26  1  0.45085600  0.50000000  0.11990700  1
  F  F27  1  0.30813900  0.00000000  0.90358500  1
  F  F28  1  0.23766100  0.50000000  0.73936400  1
  F  F29  1  0.26233900  0.00000000  0.26063600  1
  F  F30  1  0.19186100  0.50000000  0.09641500  1
  F  F31  1  0.04914400  0.00000000  0.88009300  1
