# generated using pymatgen
data_LiNd6(CuO6)2
_symmetry_space_group_name_H-M   'P 1'
_cell_length_a   16.69327000
_cell_length_b   5.63477800
_cell_length_c   6.76235242
_cell_angle_alpha   90.00000000
_cell_angle_beta   112.91145815
_cell_angle_gamma   90.00000000
_symmetry_Int_Tables_number   1
_chemical_formula_structural   LiNd6(CuO6)2
_chemical_formula_sum   'Li2 Nd12 Cu4 O24'
_cell_volume   585.90388744
_cell_formula_units_Z   2
loop_
 _symmetry_equiv_pos_site_id
 _symmetry_equiv_pos_as_xyz
  1  'x, y, z'
loop_
 _atom_site_type_symbol
 _atom_site_label
 _atom_site_symmetry_multiplicity
 _atom_site_fract_x
 _atom_site_fract_y
 _atom_site_fract_z
 _atom_site_occupancy
  Li  Li0  1  0.00000000  0.00000000  0.00000000  1
  Li  Li1  1  0.50000000  0.50000000  0.00000000  1
  Nd  Nd2  1  0.28502400  0.50000000  0.86923500  1
  Nd  Nd3  1  0.38510900  0.50000000  0.47094600  1
  Nd  Nd4  1  0.45238700  0.00000000  0.20079800  1
  Nd  Nd5  1  0.04761300  0.50000000  0.79920200  1
  Nd  Nd6  1  0.21497600  0.00000000  0.13076500  1
  Nd  Nd7  1  0.11489100  0.00000000  0.52905400  1
  Nd  Nd8  1  0.78502400  0.00000000  0.86923500  1
  Nd  Nd9  1  0.88510900  0.00000000  0.47094600  1
  Nd  Nd10  1  0.95238700  0.50000000  0.20079800  1
  Nd  Nd11  1  0.54761300  0.00000000  0.79920200  1
  Nd  Nd12  1  0.71497600  0.50000000  0.13076500  1
  Nd  Nd13  1  0.61489100  0.50000000  0.52905400  1
  Cu  Cu14  1  0.16766600  0.50000000  0.33702100  1
  Cu  Cu15  1  0.33233400  0.00000000  0.66297900  1
  Cu  Cu16  1  0.66766600  0.00000000  0.33702100  1
  Cu  Cu17  1  0.83233400  0.50000000  0.66297900  1
  O  O18  1  0.16788250  0.25058450  0.83529000  1
  O  O19  1  0.25000000  0.25000000  0.50000000  1
  O  O20  1  0.00000000  0.25114100  0.50000000  1
  O  O21  1  0.08926850  0.25847350  0.17873800  1
  O  O22  1  0.33211750  0.75058450  0.16471000  1
  O  O23  1  0.41073150  0.75847350  0.82126200  1
  O  O24  1  0.25000000  0.75000000  0.50000000  1
  O  O25  1  0.08926850  0.74152650  0.17873800  1
  O  O26  1  0.16788250  0.74941550  0.83529000  1
  O  O27  1  0.00000000  0.74885900  0.50000000  1
  O  O28  1  0.33211750  0.24941550  0.16471000  1
  O  O29  1  0.41073150  0.24152650  0.82126200  1
  O  O30  1  0.66788250  0.75058450  0.83529000  1
  O  O31  1  0.75000000  0.75000000  0.50000000  1
  O  O32  1  0.50000000  0.75114100  0.50000000  1
  O  O33  1  0.58926850  0.75847350  0.17873800  1
  O  O34  1  0.83211750  0.25058450  0.16471000  1
  O  O35  1  0.91073150  0.25847350  0.82126200  1
  O  O36  1  0.75000000  0.25000000  0.50000000  1
  O  O37  1  0.58926850  0.24152650  0.17873800  1
  O  O38  1  0.66788250  0.24941550  0.83529000  1
  O  O39  1  0.50000000  0.24885900  0.50000000  1
  O  O40  1  0.83211750  0.74941550  0.16471000  1
  O  O41  1  0.91073150  0.74152650  0.82126200  1
