# generated using pymatgen
data_Li4Mn3Fe3(TeO8)2
_symmetry_space_group_name_H-M   'P 1'
_cell_length_a   10.50680600
_cell_length_b   6.04781000
_cell_length_c   9.89094971
_cell_angle_alpha   90.00000000
_cell_angle_beta   91.24305905
_cell_angle_gamma   90.00000000
_symmetry_Int_Tables_number   1
_chemical_formula_structural   Li4Mn3Fe3(TeO8)2
_chemical_formula_sum   'Li8 Mn6 Fe6 Te4 O32'
_cell_volume   628.35435316
_cell_formula_units_Z   2
loop_
 _symmetry_equiv_pos_site_id
 _symmetry_equiv_pos_as_xyz
  1  'x, y, z'
loop_
 _atom_site_type_symbol
 _atom_site_label
 _atom_site_symmetry_multiplicity
 _atom_site_fract_x
 _atom_site_fract_y
 _atom_site_fract_z
 _atom_site_occupancy
  Li  Li0  1  0.66449400  0.00000000  0.90927500  1
  Li  Li1  1  0.99939000  0.00000000  0.98397800  1
  Li  Li2  1  0.50120700  0.50000000  0.48827000  1
  Li  Li3  1  0.83371000  0.50000000  0.41089200  1
  Li  Li4  1  0.16449400  0.50000000  0.90927500  1
  Li  Li5  1  0.49939000  0.50000000  0.98397800  1
  Li  Li6  1  0.00120700  0.00000000  0.48827000  1
  Li  Li7  1  0.33371000  0.00000000  0.41089200  1
  Mn  Mn8  1  0.83224700  0.00000000  0.21112600  1
  Mn  Mn9  1  0.91707450  0.74221150  0.70964600  1
  Mn  Mn10  1  0.91707450  0.25778850  0.70964600  1
  Mn  Mn11  1  0.33224700  0.50000000  0.21112600  1
  Mn  Mn12  1  0.41707450  0.24221150  0.70964600  1
  Mn  Mn13  1  0.41707450  0.75778850  0.70964600  1
  Fe  Fe14  1  0.58382000  0.25007500  0.21209300  1
  Fe  Fe15  1  0.58382000  0.74992500  0.21209300  1
  Fe  Fe16  1  0.67328800  0.50000000  0.71545700  1
  Fe  Fe17  1  0.08382000  0.75007500  0.21209300  1
  Fe  Fe18  1  0.08382000  0.24992500  0.21209300  1
  Fe  Fe19  1  0.17328800  0.00000000  0.71545700  1
  Te  Te20  1  0.66879900  0.00000000  0.48162400  1
  Te  Te21  1  0.83271700  0.50000000  0.98339600  1
  Te  Te22  1  0.16879900  0.50000000  0.48162400  1
  Te  Te23  1  0.33271700  0.00000000  0.98339600  1
  O  O24  1  0.59064750  0.24078850  0.58681900  1
  O  O25  1  0.52052500  0.00000000  0.34992400  1
  O  O26  1  0.66937500  0.00000000  0.11395300  1
  O  O27  1  0.99551700  0.00000000  0.30367500  1
  O  O28  1  0.50119200  0.50000000  0.79270300  1
  O  O29  1  0.59064750  0.75921150  0.58681900  1
  O  O30  1  0.73743900  0.22124000  0.35164500  1
  O  O31  1  0.73743900  0.77876000  0.35164500  1
  O  O32  1  0.66103400  0.50000000  0.10438800  1
  O  O33  1  0.83014800  0.00000000  0.58552300  1
  O  O34  1  0.75241150  0.71988950  0.84841600  1
  O  O35  1  0.75241150  0.28011050  0.84841600  1
  O  O36  1  0.83081600  0.50000000  0.61044000  1
  O  O37  1  0.92140350  0.75367450  0.09572500  1
  O  O38  1  0.97919600  0.50000000  0.85444900  1
  O  O39  1  0.92140350  0.24632550  0.09572500  1
  O  O40  1  0.09064750  0.74078850  0.58681900  1
  O  O41  1  0.02052500  0.50000000  0.34992400  1
  O  O42  1  0.16937500  0.50000000  0.11395300  1
  O  O43  1  0.49551700  0.50000000  0.30367500  1
  O  O44  1  0.00119200  0.00000000  0.79270300  1
  O  O45  1  0.09064750  0.25921150  0.58681900  1
  O  O46  1  0.23743900  0.72124000  0.35164500  1
  O  O47  1  0.23743900  0.27876000  0.35164500  1
  O  O48  1  0.16103400  0.00000000  0.10438800  1
  O  O49  1  0.33014800  0.50000000  0.58552300  1
  O  O50  1  0.25241150  0.21988950  0.84841600  1
  O  O51  1  0.25241150  0.78011050  0.84841600  1
  O  O52  1  0.33081600  0.00000000  0.61044000  1
  O  O53  1  0.42140350  0.25367450  0.09572500  1
  O  O54  1  0.47919600  0.00000000  0.85444900  1
  O  O55  1  0.42140350  0.74632550  0.09572500  1
