# generated using pymatgen
data_Li4V3Sn3(TeO8)2
_symmetry_space_group_name_H-M   'P 1'
_cell_length_a   10.91867747
_cell_length_b   6.24183913
_cell_length_c   10.15353564
_cell_angle_alpha   90.00000000
_cell_angle_beta   90.06280012
_cell_angle_gamma   90.00000000
_symmetry_Int_Tables_number   1
_chemical_formula_structural   Li4V3Sn3(TeO8)2
_chemical_formula_sum   'Li8 V6 Sn6 Te4 O32'
_cell_volume   691.98972534
_cell_formula_units_Z   2
loop_
 _symmetry_equiv_pos_site_id
 _symmetry_equiv_pos_as_xyz
  1  'x, y, z'
loop_
 _atom_site_type_symbol
 _atom_site_label
 _atom_site_symmetry_multiplicity
 _atom_site_fract_x
 _atom_site_fract_y
 _atom_site_fract_z
 _atom_site_occupancy
  Li  Li0  1  0.83077794  0.50000000  0.90394325  1
  Li  Li1  1  0.50637164  0.50000000  0.98687184  1
  Li  Li2  1  0.50354555  0.50000000  0.49855769  1
  Li  Li3  1  0.66654078  0.00000000  0.39800680  1
  Li  Li4  1  0.33077794  0.00000000  0.90394325  1
  Li  Li5  1  0.00637164  0.00000000  0.98687184  1
  Li  Li6  1  0.00354555  0.00000000  0.49855769  1
  Li  Li7  1  0.16654078  0.50000000  0.39800680  1
  V  V8  1  0.66707890  0.50000000  0.21284919  1
  V  V9  1  0.58176792  0.23470465  0.71361900  1
  V  V10  1  0.58176792  0.76529535  0.71361900  1
  V  V11  1  0.16707890  0.00000000  0.21284919  1
  V  V12  1  0.08176792  0.73470465  0.71361900  1
  V  V13  1  0.08176792  0.26529535  0.71361900  1
  Sn  Sn14  1  0.83240225  0.00000000  0.71490064  1
  Sn  Sn15  1  0.91652620  0.74875947  0.21430291  1
  Sn  Sn16  1  0.91652620  0.25124053  0.21430291  1
  Sn  Sn17  1  0.33240225  0.50000000  0.71490064  1
  Sn  Sn18  1  0.41652620  0.24875947  0.21430291  1
  Sn  Sn19  1  0.41652620  0.75124053  0.21430291  1
  Te  Te20  1  0.82114203  0.50000000  0.49877069  1
  Te  Te21  1  0.66176281  0.00000000  0.98060180  1
  Te  Te22  1  0.32114203  0.00000000  0.49877069  1
  Te  Te23  1  0.16176281  0.50000000  0.98060180  1
  O  O24  1  0.98846741  0.50000000  0.33089317  1
  O  O25  1  0.83428812  0.50000000  0.10433803  1
  O  O26  1  0.49946732  0.50000000  0.31806481  1
  O  O27  1  0.50110465  0.50000000  0.80461003  1
  O  O28  1  0.85105778  0.00000000  0.09732432  1
  O  O29  1  0.65999249  0.50000000  0.59844401  1
  O  O30  1  0.67194860  0.00000000  0.60558024  1
  O  O31  1  0.51802383  0.00000000  0.84883266  1
  O  O32  1  0.91558078  0.75788025  0.59940708  1
  O  O33  1  0.91558078  0.24211975  0.59940708  1
  O  O34  1  0.75451822  0.72459776  0.32962167  1
  O  O35  1  0.75451822  0.27540224  0.32962167  1
  O  O36  1  0.73912809  0.21951904  0.84401435  1
  O  O37  1  0.73912809  0.78048096  0.84401435  1
  O  O38  1  0.57808000  0.27720164  0.10179866  1
  O  O39  1  0.57808000  0.72279836  0.10179866  1
  O  O40  1  0.48846741  0.00000000  0.33089317  1
  O  O41  1  0.33428812  0.00000000  0.10433803  1
  O  O42  1  0.99946732  0.00000000  0.31806481  1
  O  O43  1  0.00110465  0.00000000  0.80461003  1
  O  O44  1  0.35105778  0.50000000  0.09732432  1
  O  O45  1  0.15999249  0.00000000  0.59844401  1
  O  O46  1  0.17194860  0.50000000  0.60558024  1
  O  O47  1  0.01802383  0.50000000  0.84883266  1
  O  O48  1  0.41558078  0.25788025  0.59940708  1
  O  O49  1  0.41558078  0.74211975  0.59940708  1
  O  O50  1  0.25451822  0.22459776  0.32962167  1
  O  O51  1  0.25451822  0.77540224  0.32962167  1
  O  O52  1  0.23912809  0.71951904  0.84401435  1
  O  O53  1  0.23912809  0.28048096  0.84401435  1
  O  O54  1  0.07808000  0.77720164  0.10179866  1
  O  O55  1  0.07808000  0.22279836  0.10179866  1
