# generated using pymatgen
data_Li4Mn3Cr3(CoO8)2
_symmetry_space_group_name_H-M   'P 1'
_cell_length_a   10.12669400
_cell_length_b   5.85289000
_cell_length_c   9.64980139
_cell_angle_alpha   90.00000000
_cell_angle_beta   90.60072657
_cell_angle_gamma   90.00000000
_symmetry_Int_Tables_number   1
_chemical_formula_structural   Li4Mn3Cr3(CoO8)2
_chemical_formula_sum   'Li8 Mn6 Cr6 Co4 O32'
_cell_volume   571.91640320
_cell_formula_units_Z   2
loop_
 _symmetry_equiv_pos_site_id
 _symmetry_equiv_pos_as_xyz
  1  'x, y, z'
loop_
 _atom_site_type_symbol
 _atom_site_label
 _atom_site_symmetry_multiplicity
 _atom_site_fract_x
 _atom_site_fract_y
 _atom_site_fract_z
 _atom_site_occupancy
  Li  Li0  1  0.66773800  0.00000000  0.10444400  1
  Li  Li1  1  0.00367500  0.00000000  0.00288700  1
  Li  Li2  1  0.00287300  0.00000000  0.50324600  1
  Li  Li3  1  0.33212900  0.00000000  0.60385600  1
  Li  Li4  1  0.16773800  0.50000000  0.10444400  1
  Li  Li5  1  0.50367500  0.50000000  0.00288700  1
  Li  Li6  1  0.50287300  0.50000000  0.50324600  1
  Li  Li7  1  0.83212900  0.50000000  0.60385600  1
  Mn  Mn8  1  0.83029200  0.00000000  0.78497200  1
  Mn  Mn9  1  0.41663400  0.75213900  0.28562600  1
  Mn  Mn10  1  0.41663400  0.24786100  0.28562600  1
  Mn  Mn11  1  0.33029200  0.50000000  0.78497200  1
  Mn  Mn12  1  0.91663400  0.25213900  0.28562600  1
  Mn  Mn13  1  0.91663400  0.74786100  0.28562600  1
  Cr  Cr14  1  0.58294000  0.75349000  0.78554600  1
  Cr  Cr15  1  0.58294000  0.24651000  0.78554600  1
  Cr  Cr16  1  0.16990200  0.00000000  0.28559100  1
  Cr  Cr17  1  0.08294000  0.25349000  0.78554600  1
  Cr  Cr18  1  0.08294000  0.74651000  0.78554600  1
  Cr  Cr19  1  0.66990200  0.50000000  0.28559100  1
  Co  Co20  1  0.66794800  0.00000000  0.50563100  1
  Co  Co21  1  0.33409600  0.00000000  0.00662300  1
  Co  Co22  1  0.16794800  0.50000000  0.50563100  1
  Co  Co23  1  0.83409600  0.50000000  0.00662300  1
  O  O24  1  0.58176600  0.73609900  0.39425000  1
  O  O25  1  0.51548100  0.00000000  0.67502300  1
  O  O26  1  0.67160400  0.00000000  0.89412200  1
  O  O27  1  0.99373700  0.00000000  0.68657300  1
  O  O28  1  0.99599900  0.00000000  0.18772900  1
  O  O29  1  0.58176600  0.26390100  0.39425000  1
  O  O30  1  0.73866250  0.77635250  0.66962300  1
  O  O31  1  0.73866250  0.22364750  0.66962300  1
  O  O32  1  0.16076500  0.00000000  0.89137700  1
  O  O33  1  0.84330600  0.00000000  0.39451500  1
  O  O34  1  0.25761450  0.77512750  0.17329200  1
  O  O35  1  0.25761450  0.22487250  0.17329200  1
  O  O36  1  0.34017100  0.00000000  0.39240200  1
  O  O37  1  0.42350600  0.73773000  0.89464100  1
  O  O38  1  0.48092100  0.00000000  0.16786100  1
  O  O39  1  0.42350600  0.26227000  0.89464100  1
  O  O40  1  0.08176600  0.23609900  0.39425000  1
  O  O41  1  0.01548100  0.50000000  0.67502300  1
  O  O42  1  0.17160400  0.50000000  0.89412200  1
  O  O43  1  0.49373700  0.50000000  0.68657300  1
  O  O44  1  0.49599900  0.50000000  0.18772900  1
  O  O45  1  0.08176600  0.76390100  0.39425000  1
  O  O46  1  0.23866250  0.27635250  0.66962300  1
  O  O47  1  0.23866250  0.72364750  0.66962300  1
  O  O48  1  0.66076500  0.50000000  0.89137700  1
  O  O49  1  0.34330600  0.50000000  0.39451500  1
  O  O50  1  0.75761450  0.27512750  0.17329200  1
  O  O51  1  0.75761450  0.72487250  0.17329200  1
  O  O52  1  0.84017100  0.50000000  0.39240200  1
  O  O53  1  0.92350600  0.23773000  0.89464100  1
  O  O54  1  0.98092100  0.50000000  0.16786100  1
  O  O55  1  0.92350600  0.76227000  0.89464100  1
