# generated using pymatgen
data_LiCoSnO4
_symmetry_space_group_name_H-M   'P 1'
_cell_length_a   6.08833051
_cell_length_b   6.08833051
_cell_length_c   8.60018702
_cell_angle_alpha   90.00000000
_cell_angle_beta   90.00000000
_cell_angle_gamma   90.00000000
_symmetry_Int_Tables_number   1
_chemical_formula_structural   LiCoSnO4
_chemical_formula_sum   'Li4 Co4 Sn4 O16'
_cell_volume   318.78974099
_cell_formula_units_Z   4
loop_
 _symmetry_equiv_pos_site_id
 _symmetry_equiv_pos_as_xyz
  1  'x, y, z'
loop_
 _atom_site_type_symbol
 _atom_site_label
 _atom_site_symmetry_multiplicity
 _atom_site_fract_x
 _atom_site_fract_y
 _atom_site_fract_z
 _atom_site_occupancy
  Li  Li0  1  0.50000000  0.71591150  0.00000000  1
  Li  Li1  1  0.50000000  0.28408850  0.50000000  1
  Li  Li2  1  0.71591150  0.50000000  0.25000000  1
  Li  Li3  1  0.28408850  0.50000000  0.75000000  1
  Co  Co4  1  0.25466400  0.74533600  0.37500000  1
  Co  Co5  1  0.25466400  0.25466400  0.12500000  1
  Co  Co6  1  0.74533600  0.74533600  0.62500000  1
  Co  Co7  1  0.74533600  0.25466400  0.87500000  1
  Sn  Sn8  1  0.73088250  0.00000000  0.25000000  1
  Sn  Sn9  1  0.00000000  0.73088250  0.00000000  1
  Sn  Sn10  1  0.00000000  0.26911750  0.50000000  1
  Sn  Sn11  1  0.26911750  0.00000000  0.75000000  1
  O  O12  1  0.49636950  0.75624750  0.25110000  1
  O  O13  1  0.49636950  0.24375250  0.24890000  1
  O  O14  1  0.75624750  0.49636950  0.99890000  1
  O  O15  1  0.75624750  0.50363050  0.50110000  1
  O  O16  1  0.24375250  0.49636950  0.00110000  1
  O  O17  1  0.24375250  0.50363050  0.49890000  1
  O  O18  1  0.50363050  0.75624750  0.74890000  1
  O  O19  1  0.50363050  0.24375250  0.75110000  1
  O  O20  1  0.75738450  0.98273550  0.00703700  1
  O  O21  1  0.75738450  0.01726450  0.49296300  1
  O  O22  1  0.98273550  0.75738450  0.24296300  1
  O  O23  1  0.98273550  0.24261550  0.25703700  1
  O  O24  1  0.01726450  0.75738450  0.75703700  1
  O  O25  1  0.01726450  0.24261550  0.74296300  1
  O  O26  1  0.24261550  0.01726450  0.50703700  1
  O  O27  1  0.24261550  0.98273550  0.99296300  1
