# generated using pymatgen
data_Li4Ti3Nb2Ni3O16
_symmetry_space_group_name_H-M   'P 1'
_cell_length_a   10.37173835
_cell_length_b   5.96585523
_cell_length_c   9.79634601
_cell_angle_alpha   90.00000000
_cell_angle_beta   90.00546074
_cell_angle_gamma   90.00000000
_symmetry_Int_Tables_number   1
_chemical_formula_structural   Li4Ti3Nb2Ni3O16
_chemical_formula_sum   'Li8 Ti6 Nb4 Ni6 O32'
_cell_volume   606.16153859
_cell_formula_units_Z   2
loop_
 _symmetry_equiv_pos_site_id
 _symmetry_equiv_pos_as_xyz
  1  'x, y, z'
loop_
 _atom_site_type_symbol
 _atom_site_label
 _atom_site_symmetry_multiplicity
 _atom_site_fract_x
 _atom_site_fract_y
 _atom_site_fract_z
 _atom_site_occupancy
  Li  Li0  1  0.66558150  0.00000000  0.90310900  1
  Li  Li1  1  0.99840950  0.00000000  0.98536850  1
  Li  Li2  1  0.50122550  0.50000000  0.49557050  1
  Li  Li3  1  0.83236150  0.50000000  0.40841150  1
  Li  Li4  1  0.16558150  0.50000000  0.90310900  1
  Li  Li5  1  0.49840950  0.50000000  0.98536850  1
  Li  Li6  1  0.00122550  0.00000000  0.49557050  1
  Li  Li7  1  0.33236150  0.00000000  0.40841150  1
  Ti  Ti8  1  0.67780900  0.50000000  0.73383500  1
  Ti  Ti9  1  0.59477650  0.75150350  0.22022400  1
  Ti  Ti10  1  0.59477650  0.24849650  0.22022400  1
  Ti  Ti11  1  0.17780900  0.00000000  0.73383500  1
  Ti  Ti12  1  0.09477650  0.25150350  0.22022400  1
  Ti  Ti13  1  0.09477650  0.74849650  0.22022400  1
  Nb  Nb14  1  0.66670100  0.00000000  0.50090550  1
  Nb  Nb15  1  0.85217650  0.50000000  0.98784000  1
  Nb  Nb16  1  0.16670100  0.50000000  0.50090550  1
  Nb  Nb17  1  0.35217650  0.00000000  0.98784000  1
  Ni  Ni18  1  0.83148250  0.00000000  0.20959350  1
  Ni  Ni19  1  0.91317050  0.25325700  0.70877600  1
  Ni  Ni20  1  0.91317050  0.74674300  0.70877600  1
  Ni  Ni21  1  0.33148250  0.50000000  0.20959350  1
  Ni  Ni22  1  0.41317050  0.75325700  0.70877600  1
  Ni  Ni23  1  0.41317050  0.24674300  0.70877600  1
  O  O24  1  0.51794800  0.00000000  0.33315250  1
  O  O25  1  0.65504500  0.00000000  0.10666400  1
  O  O26  1  0.50501250  0.50000000  0.30578800  1
  O  O27  1  0.50540550  0.50000000  0.79771200  1
  O  O28  1  0.66420050  0.50000000  0.10140400  1
  O  O29  1  0.83171450  0.00000000  0.58329700  1
  O  O30  1  0.81938900  0.50000000  0.60821650  1
  O  O31  1  0.98060000  0.50000000  0.84941900  1
  O  O32  1  0.58616350  0.75280100  0.58907000  1
  O  O33  1  0.58616350  0.24719900  0.58907000  1
  O  O34  1  0.73430650  0.77073100  0.33778600  1
  O  O35  1  0.73430650  0.22926900  0.33778600  1
  O  O36  1  0.75056750  0.28068800  0.84914050  1
  O  O37  1  0.75056750  0.71931200  0.84914050  1
  O  O38  1  0.91843450  0.25075900  0.09378400  1
  O  O39  1  0.91843450  0.74924100  0.09378400  1
  O  O40  1  0.01794800  0.50000000  0.33315250  1
  O  O41  1  0.15504500  0.50000000  0.10666400  1
  O  O42  1  0.00501250  0.00000000  0.30578800  1
  O  O43  1  0.00540550  0.00000000  0.79771200  1
  O  O44  1  0.16420050  0.00000000  0.10140400  1
  O  O45  1  0.33171450  0.50000000  0.58329700  1
  O  O46  1  0.31938900  0.00000000  0.60821650  1
  O  O47  1  0.48060000  0.00000000  0.84941900  1
  O  O48  1  0.08616350  0.25280100  0.58907000  1
  O  O49  1  0.08616350  0.74719900  0.58907000  1
  O  O50  1  0.23430650  0.27073100  0.33778600  1
  O  O51  1  0.23430650  0.72926900  0.33778600  1
  O  O52  1  0.25056750  0.78068800  0.84914050  1
  O  O53  1  0.25056750  0.21931200  0.84914050  1
  O  O54  1  0.41843450  0.75075900  0.09378400  1
  O  O55  1  0.41843450  0.24924100  0.09378400  1
