# generated using pymatgen
data_LiCoPO4
_symmetry_space_group_name_H-M   'P 1'
_cell_length_a   5.49907325
_cell_length_b   6.25941608
_cell_length_c   9.21474296
_cell_angle_alpha   76.12506827
_cell_angle_beta   83.67965766
_cell_angle_gamma   76.44603168
_symmetry_Int_Tables_number   1
_chemical_formula_structural   LiCoPO4
_chemical_formula_sum   'Li4 Co4 P4 O16'
_cell_volume   298.86150628
_cell_formula_units_Z   4
loop_
 _symmetry_equiv_pos_site_id
 _symmetry_equiv_pos_as_xyz
  1  'x, y, z'
loop_
 _atom_site_type_symbol
 _atom_site_label
 _atom_site_symmetry_multiplicity
 _atom_site_fract_x
 _atom_site_fract_y
 _atom_site_fract_z
 _atom_site_occupancy
  Li  Li0  1  0.35103300  0.01186200  0.75794100  1
  Li  Li1  1  0.64896700  0.98813800  0.24205900  1
  Li  Li2  1  0.79528300  0.15277000  0.58380900  1
  Li  Li3  1  0.20471700  0.84723000  0.41619100  1
  Co  Co4  1  0.15126100  0.54604800  0.71276200  1
  Co  Co5  1  0.84873900  0.45395200  0.28723800  1
  Co  Co6  1  0.72301900  0.33456000  0.91401700  1
  Co  Co7  1  0.27698100  0.66544000  0.08598300  1
  P  P8  1  0.80482000  0.80234000  0.95091800  1
  P  P9  1  0.19518000  0.19766000  0.04908200  1
  P  P10  1  0.67899400  0.67783200  0.57647800  1
  P  P11  1  0.32100600  0.32216800  0.42352200  1
  O  O12  1  0.61309400  0.66288700  0.93532400  1
  O  O13  1  0.38690600  0.33711300  0.06467600  1
  O  O14  1  0.07308000  0.71149400  0.88519100  1
  O  O15  1  0.92692000  0.28850600  0.11480900  1
  O  O16  1  0.15173600  0.22329600  0.88040900  1
  O  O17  1  0.84826400  0.77670400  0.11959100  1
  O  O18  1  0.69669600  0.04516500  0.86784000  1
  O  O19  1  0.30330400  0.95483500  0.13216000  1
  O  O20  1  0.86994800  0.81930700  0.59273400  1
  O  O21  1  0.13005200  0.18069300  0.40726600  1
  O  O22  1  0.40636400  0.77273500  0.63253000  1
  O  O23  1  0.59363600  0.22726500  0.36747000  1
  O  O24  1  0.78414700  0.43640100  0.67188500  1
  O  O25  1  0.21585300  0.56359900  0.32811500  1
  O  O26  1  0.33357200  0.32047400  0.59124200  1
  O  O27  1  0.66642800  0.67952600  0.40875800  1
