# generated using pymatgen
data_Li4Cr3Ni3(WO8)2
_symmetry_space_group_name_H-M   'P 1'
_cell_length_a   10.24993800
_cell_length_b   5.97153400
_cell_length_c   9.65264235
_cell_angle_alpha   90.00000000
_cell_angle_beta   90.44055653
_cell_angle_gamma   90.00000000
_symmetry_Int_Tables_number   1
_chemical_formula_structural   Li4Cr3Ni3(WO8)2
_chemical_formula_sum   'Li8 Cr6 Ni6 W4 O32'
_cell_volume   590.80005092
_cell_formula_units_Z   2
loop_
 _symmetry_equiv_pos_site_id
 _symmetry_equiv_pos_as_xyz
  1  'x, y, z'
loop_
 _atom_site_type_symbol
 _atom_site_label
 _atom_site_symmetry_multiplicity
 _atom_site_fract_x
 _atom_site_fract_y
 _atom_site_fract_z
 _atom_site_occupancy
  Li  Li0  1  0.66487200  0.00000000  0.90698000  1
  Li  Li1  1  0.99944200  0.00000000  0.98685700  1
  Li  Li2  1  0.00054800  0.00000000  0.49187700  1
  Li  Li3  1  0.33122500  0.00000000  0.40555000  1
  Li  Li4  1  0.16487200  0.50000000  0.90698000  1
  Li  Li5  1  0.49944200  0.50000000  0.98685700  1
  Li  Li6  1  0.50054800  0.50000000  0.49187700  1
  Li  Li7  1  0.83122500  0.50000000  0.40555000  1
  Cr  Cr8  1  0.58705500  0.24585800  0.21481900  1
  Cr  Cr9  1  0.58705500  0.75414200  0.21481900  1
  Cr  Cr10  1  0.17511800  0.00000000  0.72237700  1
  Cr  Cr11  1  0.08705500  0.74585800  0.21481900  1
  Cr  Cr12  1  0.08705500  0.25414200  0.21481900  1
  Cr  Cr13  1  0.67511800  0.50000000  0.72237700  1
  Ni  Ni14  1  0.83027100  0.00000000  0.21482300  1
  Ni  Ni15  1  0.41590850  0.24475850  0.71134000  1
  Ni  Ni16  1  0.41590850  0.75524150  0.71134000  1
  Ni  Ni17  1  0.33027100  0.50000000  0.21482300  1
  Ni  Ni18  1  0.91590850  0.74475850  0.71134000  1
  Ni  Ni19  1  0.91590850  0.25524150  0.71134000  1
  W  W20  1  0.66960800  0.00000000  0.48723100  1
  W  W21  1  0.33902300  0.00000000  0.98930900  1
  W  W22  1  0.16960800  0.50000000  0.48723100  1
  W  W23  1  0.83902300  0.50000000  0.98930900  1
  O  O24  1  0.59070550  0.24313650  0.59029200  1
  O  O25  1  0.51904000  0.00000000  0.34341200  1
  O  O26  1  0.66367800  0.00000000  0.10764500  1
  O  O27  1  0.00301900  0.00000000  0.30589300  1
  O  O28  1  0.00965100  0.00000000  0.79624800  1
  O  O29  1  0.59070550  0.75686350  0.59029200  1
  O  O30  1  0.73653250  0.22400050  0.34990200  1
  O  O31  1  0.73653250  0.77599950  0.34990200  1
  O  O32  1  0.17218700  0.00000000  0.09360700  1
  O  O33  1  0.82951500  0.00000000  0.58495400  1
  O  O34  1  0.25135250  0.21312350  0.84909700  1
  O  O35  1  0.25135250  0.78687650  0.84909700  1
  O  O36  1  0.32032700  0.00000000  0.61096900  1
  O  O37  1  0.41623050  0.24185850  0.08773500  1
  O  O38  1  0.47755700  0.00000000  0.85382200  1
  O  O39  1  0.41623050  0.75814150  0.08773500  1
  O  O40  1  0.09070550  0.74313650  0.59029200  1
  O  O41  1  0.01904000  0.50000000  0.34341200  1
  O  O42  1  0.16367800  0.50000000  0.10764500  1
  O  O43  1  0.50301900  0.50000000  0.30589300  1
  O  O44  1  0.50965100  0.50000000  0.79624800  1
  O  O45  1  0.09070550  0.25686350  0.59029200  1
  O  O46  1  0.23653250  0.72400050  0.34990200  1
  O  O47  1  0.23653250  0.27599950  0.34990200  1
  O  O48  1  0.67218700  0.50000000  0.09360700  1
  O  O49  1  0.32951500  0.50000000  0.58495400  1
  O  O50  1  0.75135250  0.71312350  0.84909700  1
  O  O51  1  0.75135250  0.28687650  0.84909700  1
  O  O52  1  0.82032700  0.50000000  0.61096900  1
  O  O53  1  0.91623050  0.74185850  0.08773500  1
  O  O54  1  0.97755700  0.50000000  0.85382200  1
  O  O55  1  0.91623050  0.25814150  0.08773500  1
