# generated using pymatgen
data_LiFePO4
_symmetry_space_group_name_H-M   'P 1'
_cell_length_a   5.76409000
_cell_length_b   5.76409000
_cell_length_c   8.12461200
_cell_angle_alpha   90.00000000
_cell_angle_beta   90.00000000
_cell_angle_gamma   90.00000000
_symmetry_Int_Tables_number   1
_chemical_formula_structural   LiFePO4
_chemical_formula_sum   'Li4 Fe4 P4 O16'
_cell_volume   269.93806872
_cell_formula_units_Z   4
loop_
 _symmetry_equiv_pos_site_id
 _symmetry_equiv_pos_as_xyz
  1  'x, y, z'
loop_
 _atom_site_type_symbol
 _atom_site_label
 _atom_site_symmetry_multiplicity
 _atom_site_fract_x
 _atom_site_fract_y
 _atom_site_fract_z
 _atom_site_occupancy
  Li  Li0  1  0.50000000  0.72427900  0.00000000  1
  Li  Li1  1  0.50000000  0.27572100  0.50000000  1
  Li  Li2  1  0.72427900  0.50000000  0.25000000  1
  Li  Li3  1  0.27572100  0.50000000  0.75000000  1
  Fe  Fe4  1  0.00000000  0.73735200  0.00000000  1
  Fe  Fe5  1  0.00000000  0.26264800  0.50000000  1
  Fe  Fe6  1  0.73735200  0.00000000  0.25000000  1
  Fe  Fe7  1  0.26264800  0.00000000  0.75000000  1
  P  P8  1  0.75111300  0.75111300  0.62500000  1
  P  P9  1  0.75111300  0.24888700  0.87500000  1
  P  P10  1  0.24888700  0.75111300  0.37500000  1
  P  P11  1  0.24888700  0.24888700  0.12500000  1
  O  O12  1  0.46946100  0.75128800  0.26423300  1
  O  O13  1  0.46946100  0.24871200  0.23576700  1
  O  O14  1  0.75128800  0.46946100  0.98576700  1
  O  O15  1  0.75128800  0.53053900  0.51423300  1
  O  O16  1  0.24871200  0.46946100  0.01423300  1
  O  O17  1  0.24871200  0.53053900  0.48576700  1
  O  O18  1  0.53053900  0.75128800  0.73576700  1
  O  O19  1  0.53053900  0.24871200  0.76423300  1
  O  O20  1  0.75265400  0.97500800  0.51303500  1
  O  O21  1  0.75265400  0.02499200  0.98696500  1
  O  O22  1  0.02499200  0.75265400  0.26303500  1
  O  O23  1  0.02499200  0.24734600  0.23696500  1
  O  O24  1  0.97500800  0.75265400  0.73696500  1
  O  O25  1  0.97500800  0.24734600  0.76303500  1
  O  O26  1  0.24734600  0.97500800  0.48696500  1
  O  O27  1  0.24734600  0.02499200  0.01303500  1
