# generated using pymatgen
data_Li(BiO2)3
_symmetry_space_group_name_H-M   'P 1'
_cell_length_a   10.79816200
_cell_length_b   10.79816200
_cell_length_c   10.79816200
_cell_angle_alpha   90.00000000
_cell_angle_beta   90.00000000
_cell_angle_gamma   90.00000000
_symmetry_Int_Tables_number   1
_chemical_formula_structural   Li(BiO2)3
_chemical_formula_sum   'Li8 Bi24 O48'
_cell_volume   1259.06895649
_cell_formula_units_Z   8
loop_
 _symmetry_equiv_pos_site_id
 _symmetry_equiv_pos_as_xyz
  1  'x, y, z'
loop_
 _atom_site_type_symbol
 _atom_site_label
 _atom_site_symmetry_multiplicity
 _atom_site_fract_x
 _atom_site_fract_y
 _atom_site_fract_z
 _atom_site_occupancy
  Li  Li0  1  0.76554350  0.23445650  0.73445650  1
  Li  Li1  1  0.23445650  0.73445650  0.76554350  1
  Li  Li2  1  0.26554350  0.26554350  0.26554350  1
  Li  Li3  1  0.73445650  0.76554350  0.23445650  1
  Li  Li4  1  0.26554350  0.73445650  0.23445650  1
  Li  Li5  1  0.73445650  0.23445650  0.26554350  1
  Li  Li6  1  0.76554350  0.76554350  0.76554350  1
  Li  Li7  1  0.23445650  0.26554350  0.73445650  1
  Bi  Bi8  1  0.75000000  0.46344500  0.50000000  1
  Bi  Bi9  1  0.00000000  0.75000000  0.03687000  1
  Bi  Bi10  1  0.00000000  0.25000000  0.46313000  1
  Bi  Bi11  1  0.03655500  0.50000000  0.25000000  1
  Bi  Bi12  1  0.03687000  0.00000000  0.75000000  1
  Bi  Bi13  1  0.25000000  0.46313000  0.00000000  1
  Bi  Bi14  1  0.25000000  0.03655500  0.50000000  1
  Bi  Bi15  1  0.46313000  0.00000000  0.25000000  1
  Bi  Bi16  1  0.46344500  0.50000000  0.75000000  1
  Bi  Bi17  1  0.50000000  0.75000000  0.46344500  1
  Bi  Bi18  1  0.50000000  0.25000000  0.03655500  1
  Bi  Bi19  1  0.75000000  0.03687000  0.00000000  1
  Bi  Bi20  1  0.25000000  0.96344500  0.00000000  1
  Bi  Bi21  1  0.50000000  0.25000000  0.53687000  1
  Bi  Bi22  1  0.50000000  0.75000000  0.96313000  1
  Bi  Bi23  1  0.53655500  0.00000000  0.75000000  1
  Bi  Bi24  1  0.53687000  0.50000000  0.25000000  1
  Bi  Bi25  1  0.75000000  0.96313000  0.50000000  1
  Bi  Bi26  1  0.75000000  0.53655500  0.00000000  1
  Bi  Bi27  1  0.96313000  0.50000000  0.75000000  1
  Bi  Bi28  1  0.96344500  0.00000000  0.25000000  1
  Bi  Bi29  1  0.00000000  0.25000000  0.96344500  1
  Bi  Bi30  1  0.00000000  0.75000000  0.53655500  1
  Bi  Bi31  1  0.25000000  0.53687000  0.50000000  1
  O  O32  1  0.14533750  0.11426550  0.91185350  1
  O  O33  1  0.88573450  0.58814650  0.14533750  1
  O  O34  1  0.88573450  0.41185350  0.35466250  1
  O  O35  1  0.84329650  0.88117150  0.12399250  1
  O  O36  1  0.34329650  0.61882850  0.87600750  1
  O  O37  1  0.15670350  0.38117150  0.37600750  1
  O  O38  1  0.15670350  0.61882850  0.12399250  1
  O  O39  1  0.11426550  0.08814650  0.35466250  1
  O  O40  1  0.08814650  0.35466250  0.11426550  1
  O  O41  1  0.12399250  0.15670350  0.61882850  1
  O  O42  1  0.12399250  0.84329650  0.88117150  1
  O  O43  1  0.61882850  0.87600750  0.34329650  1
  O  O44  1  0.14533750  0.88573450  0.58814650  1
  O  O45  1  0.35466250  0.11426550  0.08814650  1
  O  O46  1  0.35466250  0.88573450  0.41185350  1
  O  O47  1  0.38117150  0.37600750  0.15670350  1
  O  O48  1  0.37600750  0.15670350  0.38117150  1
  O  O49  1  0.87600750  0.34329650  0.61882850  1
  O  O50  1  0.41185350  0.35466250  0.88573450  1
  O  O51  1  0.91185350  0.14533750  0.11426550  1
  O  O52  1  0.11426550  0.91185350  0.14533750  1
  O  O53  1  0.58814650  0.14533750  0.88573450  1
  O  O54  1  0.61882850  0.12399250  0.15670350  1
  O  O55  1  0.88117150  0.12399250  0.84329650  1
  O  O56  1  0.64533750  0.61426550  0.41185350  1
  O  O57  1  0.38573450  0.08814650  0.64533750  1
  O  O58  1  0.38573450  0.91185350  0.85466250  1
  O  O59  1  0.34329650  0.38117150  0.62399250  1
  O  O60  1  0.84329650  0.11882850  0.37600750  1
  O  O61  1  0.65670350  0.88117150  0.87600750  1
  O  O62  1  0.65670350  0.11882850  0.62399250  1
  O  O63  1  0.61426550  0.58814650  0.85466250  1
  O  O64  1  0.58814650  0.85466250  0.61426550  1
  O  O65  1  0.62399250  0.65670350  0.11882850  1
  O  O66  1  0.62399250  0.34329650  0.38117150  1
  O  O67  1  0.11882850  0.37600750  0.84329650  1
  O  O68  1  0.64533750  0.38573450  0.08814650  1
  O  O69  1  0.85466250  0.61426550  0.58814650  1
  O  O70  1  0.85466250  0.38573450  0.91185350  1
  O  O71  1  0.88117150  0.87600750  0.65670350  1
  O  O72  1  0.87600750  0.65670350  0.88117150  1
  O  O73  1  0.37600750  0.84329650  0.11882850  1
  O  O74  1  0.91185350  0.85466250  0.38573450  1
  O  O75  1  0.41185350  0.64533750  0.61426550  1
  O  O76  1  0.61426550  0.41185350  0.64533750  1
  O  O77  1  0.08814650  0.64533750  0.38573450  1
  O  O78  1  0.11882850  0.62399250  0.65670350  1
  O  O79  1  0.38117150  0.62399250  0.34329650  1
