# generated using pymatgen
data_Mn4O7F
_symmetry_space_group_name_H-M   'P 1'
_cell_length_a   5.49458456
_cell_length_b   4.96775700
_cell_length_c   8.95244399
_cell_angle_alpha   90.00000000
_cell_angle_beta   91.34379757
_cell_angle_gamma   90.00000000
_symmetry_Int_Tables_number   1
_chemical_formula_structural   Mn4O7F
_chemical_formula_sum   'Mn8 O14 F2'
_cell_volume   244.29656466
_cell_formula_units_Z   2
loop_
 _symmetry_equiv_pos_site_id
 _symmetry_equiv_pos_as_xyz
  1  'x, y, z'
loop_
 _atom_site_type_symbol
 _atom_site_label
 _atom_site_symmetry_multiplicity
 _atom_site_fract_x
 _atom_site_fract_y
 _atom_site_fract_z
 _atom_site_occupancy
  Mn  Mn0  1  0.41513500  0.25962600  0.12079100  1
  Mn  Mn1  1  0.09827700  0.73622200  0.12432400  1
  Mn  Mn2  1  0.58486500  0.75962600  0.87920900  1
  Mn  Mn3  1  0.90172300  0.23622200  0.87567600  1
  Mn  Mn4  1  0.11748100  0.75623600  0.61502000  1
  Mn  Mn5  1  0.39377800  0.24964800  0.62588000  1
  Mn  Mn6  1  0.60622200  0.74964800  0.37412000  1
  Mn  Mn7  1  0.88251900  0.25623600  0.38498000  1
  O  O8  1  0.35815900  0.92366300  0.01502600  1
  O  O9  1  0.13919600  0.41126800  0.00935300  1
  O  O10  1  0.64184100  0.42366300  0.98497400  1
  O  O11  1  0.86080400  0.91126800  0.99064700  1
  O  O12  1  0.63532800  0.07615500  0.75711500  1
  O  O13  1  0.36029800  0.57973100  0.73848000  1
  O  O14  1  0.14305000  0.07410900  0.73676200  1
  O  O15  1  0.36221400  0.92588100  0.50465500  1
  O  O16  1  0.13926500  0.42457400  0.50602600  1
  O  O17  1  0.63778600  0.42588100  0.49534500  1
  O  O18  1  0.86073500  0.92457400  0.49397400  1
  O  O19  1  0.63970200  0.07973100  0.26152000  1
  O  O20  1  0.85695000  0.57410900  0.26323800  1
  O  O21  1  0.36467200  0.57615500  0.24288500  1
  F  F22  1  0.87317100  0.58288500  0.75130200  1
  F  F23  1  0.12682900  0.08288500  0.24869800  1
