# generated using pymatgen
data_PrTiO3
_symmetry_space_group_name_H-M   'P 1'
_cell_length_a   5.67593831
_cell_length_b   5.67593831
_cell_length_c   13.38933358
_cell_angle_alpha   90.00000000
_cell_angle_beta   90.00000000
_cell_angle_gamma   120.00000000
_symmetry_Int_Tables_number   1
_chemical_formula_structural   PrTiO3
_chemical_formula_sum   'Pr6 Ti6 O18'
_cell_volume   373.56392256
_cell_formula_units_Z   6
loop_
 _symmetry_equiv_pos_site_id
 _symmetry_equiv_pos_as_xyz
  1  'x, y, z'
loop_
 _atom_site_type_symbol
 _atom_site_label
 _atom_site_symmetry_multiplicity
 _atom_site_fract_x
 _atom_site_fract_y
 _atom_site_fract_z
 _atom_site_occupancy
  Pr  Pr0  1  0.33333333  0.66666667  0.91666667  1
  Pr  Pr1  1  0.33333333  0.66666667  0.41666667  1
  Pr  Pr2  1  0.00000000  0.00000000  0.25000000  1
  Pr  Pr3  1  0.00000000  0.00000000  0.75000000  1
  Pr  Pr4  1  0.66666667  0.33333333  0.58333333  1
  Pr  Pr5  1  0.66666667  0.33333333  0.08333333  1
  Ti  Ti6  1  0.00000000  0.00000000  0.00000000  1
  Ti  Ti7  1  0.33333333  0.66666667  0.16666667  1
  Ti  Ti8  1  0.66666667  0.33333333  0.33333333  1
  Ti  Ti9  1  0.00000000  0.00000000  0.50000000  1
  Ti  Ti10  1  0.33333333  0.66666667  0.66666667  1
  Ti  Ti11  1  0.66666667  0.33333333  0.83333333  1
  O  O12  1  0.66666667  0.75412933  0.08333333  1
  O  O13  1  0.42079600  0.42079600  0.25000000  1
  O  O14  1  0.57920400  0.00000000  0.25000000  1
  O  O15  1  0.08746267  0.33333333  0.08333333  1
  O  O16  1  0.24587067  0.91253733  0.08333333  1
  O  O17  1  0.00000000  0.57920400  0.25000000  1
  O  O18  1  0.33333333  0.08746267  0.41666667  1
  O  O19  1  0.08746267  0.75412933  0.58333333  1
  O  O20  1  0.24587067  0.33333333  0.58333333  1
  O  O21  1  0.75412933  0.66666667  0.41666667  1
  O  O22  1  0.91253733  0.24587067  0.41666667  1
  O  O23  1  0.66666667  0.91253733  0.58333333  1
  O  O24  1  0.00000000  0.42079600  0.75000000  1
  O  O25  1  0.75412933  0.08746267  0.91666667  1
  O  O26  1  0.91253733  0.66666667  0.91666667  1
  O  O27  1  0.42079600  0.00000000  0.75000000  1
  O  O28  1  0.57920400  0.57920400  0.75000000  1
  O  O29  1  0.33333333  0.24587067  0.91666667  1
