# generated using pymatgen
data_CeOF
_symmetry_space_group_name_H-M   'P 1'
_cell_length_a   3.98928767
_cell_length_b   3.98928767
_cell_length_c   20.05313139
_cell_angle_alpha   90.00000000
_cell_angle_beta   90.00000000
_cell_angle_gamma   120.00000000
_symmetry_Int_Tables_number   1
_chemical_formula_structural   CeOF
_chemical_formula_sum   'Ce6 O6 F6'
_cell_volume   276.37804474
_cell_formula_units_Z   6
loop_
 _symmetry_equiv_pos_site_id
 _symmetry_equiv_pos_as_xyz
  1  'x, y, z'
loop_
 _atom_site_type_symbol
 _atom_site_label
 _atom_site_symmetry_multiplicity
 _atom_site_fract_x
 _atom_site_fract_y
 _atom_site_fract_z
 _atom_site_occupancy
  Ce  Ce0  1  0.00000000  0.00000000  0.24006800  1
  Ce  Ce1  1  0.66666667  0.33333333  0.09326533  1
  Ce  Ce2  1  0.66666667  0.33333333  0.57340133  1
  Ce  Ce3  1  0.33333333  0.66666667  0.42659867  1
  Ce  Ce4  1  0.33333333  0.66666667  0.90673467  1
  Ce  Ce5  1  0.00000000  0.00000000  0.75993200  1
  O  O6  1  0.00000000  0.00000000  0.12219100  1
  O  O7  1  0.66666667  0.33333333  0.21114233  1
  O  O8  1  0.66666667  0.33333333  0.45552433  1
  O  O9  1  0.33333333  0.66666667  0.54447567  1
  O  O10  1  0.33333333  0.66666667  0.78885767  1
  O  O11  1  0.00000000  0.00000000  0.87780900  1
  F  F12  1  0.33333333  0.66666667  0.03655067  1
  F  F13  1  0.33333333  0.66666667  0.29678267  1
  F  F14  1  0.00000000  0.00000000  0.36988400  1
  F  F15  1  0.00000000  0.00000000  0.63011600  1
  F  F16  1  0.66666667  0.33333333  0.70321733  1
  F  F17  1  0.66666667  0.33333333  0.96344933  1
