# generated using pymatgen
data_Li3Mn4P3H12O19
_symmetry_space_group_name_H-M   'P 1'
_cell_length_a   10.86959430
_cell_length_b   10.86959430
_cell_length_c   26.46541342
_cell_angle_alpha   90.00000000
_cell_angle_beta   90.00000000
_cell_angle_gamma   120.00000000
_symmetry_Int_Tables_number   1
_chemical_formula_structural   Li3Mn4P3H12O19
_chemical_formula_sum   'Li18 Mn24 P18 H72 O114'
_cell_volume   2707.92095768
_cell_formula_units_Z   6
loop_
 _symmetry_equiv_pos_site_id
 _symmetry_equiv_pos_as_xyz
  1  'x, y, z'
loop_
 _atom_site_type_symbol
 _atom_site_label
 _atom_site_symmetry_multiplicity
 _atom_site_fract_x
 _atom_site_fract_y
 _atom_site_fract_z
 _atom_site_occupancy
  Li  Li0  1  0.84238367  0.55297633  0.22720233  1
  Li  Li1  1  0.11369033  0.49094967  0.06053567  1
  Li  Li2  1  0.44702367  0.28940733  0.22720233  1
  Li  Li3  1  0.50905033  0.62274067  0.06053567  1
  Li  Li4  1  0.37725933  0.88630967  0.06053567  1
  Li  Li5  1  0.71059267  0.15761633  0.22720233  1
  Li  Li6  1  0.50905033  0.88630967  0.56053567  1
  Li  Li7  1  0.78035700  0.82428300  0.39386900  1
  Li  Li8  1  0.11369033  0.62274067  0.56053567  1
  Li  Li9  1  0.17571700  0.95607400  0.39386900  1
  Li  Li10  1  0.04392600  0.21964300  0.39386900  1
  Li  Li11  1  0.37725933  0.49094967  0.56053567  1
  Li  Li12  1  0.17571700  0.21964300  0.89386900  1
  Li  Li13  1  0.44702367  0.15761633  0.72720233  1
  Li  Li14  1  0.78035700  0.95607400  0.89386900  1
  Li  Li15  1  0.84238367  0.28940733  0.72720233  1
  Li  Li16  1  0.71059267  0.55297633  0.72720233  1
  Li  Li17  1  0.04392600  0.82428300  0.89386900  1
  Mn  Mn18  1  0.90977833  0.11816367  0.09697567  1
  Mn  Mn19  1  0.24311167  0.45828133  0.26364233  1
  Mn  Mn20  1  0.21516967  0.75688833  0.26364233  1
  Mn  Mn21  1  0.33333333  0.66666667  0.66547167  1
  Mn  Mn22  1  0.33333333  0.66666667  0.16547167  1
  Mn  Mn23  1  0.20838533  0.09022167  0.09697567  1
  Mn  Mn24  1  0.54171867  0.78483033  0.26364233  1
  Mn  Mn25  1  0.88183633  0.79161467  0.09697567  1
  Mn  Mn26  1  0.57644500  0.45149700  0.43030900  1
  Mn  Mn27  1  0.90977833  0.79161467  0.59697567  1
  Mn  Mn28  1  0.88183633  0.09022167  0.59697567  1
  Mn  Mn29  1  0.00000000  0.00000000  0.99880500  1
  Mn  Mn30  1  0.00000000  0.00000000  0.49880500  1
  Mn  Mn31  1  0.87505200  0.42355500  0.43030900  1
  Mn  Mn32  1  0.20838533  0.11816367  0.59697567  1
  Mn  Mn33  1  0.54850300  0.12494800  0.43030900  1
  Mn  Mn34  1  0.24311167  0.78483033  0.76364233  1
  Mn  Mn35  1  0.57644500  0.12494800  0.93030900  1
  Mn  Mn36  1  0.54850300  0.42355500  0.93030900  1
  Mn  Mn37  1  0.66666667  0.33333333  0.33213833  1
  Mn  Mn38  1  0.66666667  0.33333333  0.83213833  1
  Mn  Mn39  1  0.54171867  0.75688833  0.76364233  1
  Mn  Mn40  1  0.87505200  0.45149700  0.93030900  1
  Mn  Mn41  1  0.21516967  0.45828133  0.76364233  1
  P  P42  1  0.98550000  0.47656000  0.31528100  1
  P  P43  1  0.19010667  0.34783333  0.14861433  1
  P  P44  1  0.15772667  0.80989333  0.14861433  1
  P  P45  1  0.52344000  0.50894000  0.31528100  1
  P  P46  1  0.49106000  0.01450000  0.31528100  1
  P  P47  1  0.65216667  0.84227333  0.14861433  1
  P  P48  1  0.65216667  0.80989333  0.64861433  1
  P  P49  1  0.85677333  0.68116667  0.48194767  1
  P  P50  1  0.82439333  0.14322667  0.48194767  1
  P  P51  1  0.19010667  0.84227333  0.64861433  1
  P  P52  1  0.15772667  0.34783333  0.64861433  1
  P  P53  1  0.31883333  0.17560667  0.48194767  1
  P  P54  1  0.31883333  0.14322667  0.98194767  1
  P  P55  1  0.52344000  0.01450000  0.81528100  1
  P  P56  1  0.49106000  0.47656000  0.81528100  1
  P  P57  1  0.85677333  0.17560667  0.98194767  1
  P  P58  1  0.82439333  0.68116667  0.98194767  1
  P  P59  1  0.98550000  0.50894000  0.81528100  1
  H  H60  1  0.85300500  0.39267600  0.15082600  1
  H  H61  1  0.95184467  0.38485333  0.19137633  1
  H  H62  1  0.12298667  0.44270333  0.90424233  1
  H  H63  1  0.28181333  0.38148867  0.02470967  1
  H  H64  1  0.31971667  0.44270333  0.40424233  1
  H  H65  1  0.27399067  0.48032833  0.98415933  1
  H  H66  1  0.09967533  0.71818667  0.02470967  1
  H  H67  1  0.22297300  0.50528800  0.39174700  1
  H  H68  1  0.28231500  0.50528800  0.89174700  1
  H  H69  1  0.12298667  0.68028333  0.40424233  1
  H  H70  1  0.20633767  0.72600933  0.98415933  1
  H  H71  1  0.22297300  0.71768500  0.89174700  1
  H  H72  1  0.28231500  0.77702700  0.39174700  1
  H  H73  1  0.60732400  0.46032900  0.15082600  1
  H  H74  1  0.31971667  0.87701333  0.90424233  1
  H  H75  1  0.49471200  0.71768500  0.39174700  1
  H  H76  1  0.49471200  0.77702700  0.89174700  1
  H  H77  1  0.61514667  0.56699133  0.19137633  1
  H  H78  1  0.55729667  0.68028333  0.90424233  1
  H  H79  1  0.51967167  0.79366233  0.98415933  1
  H  H80  1  0.55729667  0.87701333  0.40424233  1
  H  H81  1  0.43300867  0.04815533  0.19137633  1
  H  H82  1  0.61851133  0.90032467  0.02470967  1
  H  H83  1  0.53967100  0.14699500  0.15082600  1
  H  H84  1  0.51967167  0.72600933  0.48415933  1
  H  H85  1  0.61851133  0.71818667  0.52470967  1
  H  H86  1  0.78965333  0.77603667  0.23757567  1
  H  H87  1  0.94848000  0.71482200  0.35804300  1
  H  H88  1  0.98638333  0.77603667  0.73757567  1
  H  H89  1  0.94065733  0.81366167  0.31749267  1
  H  H90  1  0.76634200  0.05152000  0.35804300  1
  H  H91  1  0.88963967  0.83862133  0.72508033  1
  H  H92  1  0.94898167  0.83862133  0.22508033  1
  H  H93  1  0.78965333  0.01361667  0.73757567  1
  H  H94  1  0.87300433  0.05934267  0.31749267  1
  H  H95  1  0.88963967  0.05101833  0.22508033  1
  H  H96  1  0.94898167  0.11036033  0.72508033  1
  H  H97  1  0.27399067  0.79366233  0.48415933  1
  H  H98  1  0.98638333  0.21034667  0.23757567  1
  H  H99  1  0.16137867  0.05101833  0.72508033  1
  H  H100  1  0.16137867  0.11036033  0.22508033  1
  H  H101  1  0.28181333  0.90032467  0.52470967  1
  H  H102  1  0.22396333  0.01361667  0.23757567  1
  H  H103  1  0.18633833  0.12699567  0.31749267  1
  H  H104  1  0.22396333  0.21034667  0.73757567  1
  H  H105  1  0.09967533  0.38148867  0.52470967  1
  H  H106  1  0.28517800  0.23365800  0.35804300  1
  H  H107  1  0.20633767  0.48032833  0.48415933  1
  H  H108  1  0.18633833  0.05934267  0.81749267  1
  H  H109  1  0.28517800  0.05152000  0.85804300  1
  H  H110  1  0.45632000  0.10937000  0.57090900  1
  H  H111  1  0.61514667  0.04815533  0.69137633  1
  H  H112  1  0.65305000  0.10937000  0.07090900  1
  H  H113  1  0.60732400  0.14699500  0.65082600  1
  H  H114  1  0.43300867  0.38485333  0.69137633  1
  H  H115  1  0.55630633  0.17195467  0.05841367  1
  H  H116  1  0.61564833  0.17195467  0.55841367  1
  H  H117  1  0.45632000  0.34695000  0.07090900  1
  H  H118  1  0.53967100  0.39267600  0.65082600  1
  H  H119  1  0.55630633  0.38435167  0.55841367  1
  H  H120  1  0.61564833  0.44369367  0.05841367  1
  H  H121  1  0.94065733  0.12699567  0.81749267  1
  H  H122  1  0.65305000  0.54368000  0.57090900  1
  H  H123  1  0.82804533  0.38435167  0.05841367  1
  H  H124  1  0.82804533  0.44369367  0.55841367  1
  H  H125  1  0.94848000  0.23365800  0.85804300  1
  H  H126  1  0.89063000  0.34695000  0.57090900  1
  H  H127  1  0.85300500  0.46032900  0.65082600  1
  H  H128  1  0.89063000  0.54368000  0.07090900  1
  H  H129  1  0.76634200  0.71482200  0.85804300  1
  H  H130  1  0.95184467  0.56699133  0.69137633  1
  H  H131  1  0.87300433  0.81366167  0.81749267  1
  O  O132  1  0.84445567  0.33997633  0.30307433  1
  O  O133  1  0.85506167  0.36975933  0.18688233  1
  O  O134  1  0.07965100  0.31976800  0.10599600  1
  O  O135  1  0.22488167  0.22585533  0.15369033  1
  O  O136  1  0.12207500  0.35608200  0.20003600  1
  O  O137  1  0.97725133  0.54459167  0.36670267  1
  O  O138  1  0.10747800  0.44178500  0.32035700  1
  O  O139  1  0.01356533  0.58701567  0.27266267  1
  O  O140  1  0.21231300  0.45173800  0.91776100  1
  O  O141  1  0.23942500  0.45173800  0.41776100  1
  O  O142  1  0.00097367  0.77511833  0.15369033  1
  O  O143  1  0.29690733  0.47827167  0.02021567  1
  O  O144  1  0.41298433  0.42654967  0.27266267  1
  O  O145  1  0.32669033  0.48887767  0.13640767  1
  O  O146  1  0.16218733  0.67330967  0.13640767  1
  O  O147  1  0.45540833  0.43265967  0.36670267  1
  O  O148  1  0.18136433  0.70309267  0.02021567  1
  O  O149  1  0.21231300  0.76057500  0.41776100  1
  O  O150  1  0.33333333  0.66666667  0.74244667  1
  O  O151  1  0.33333333  0.66666667  0.24244667  1
  O  O152  1  0.23942500  0.78768700  0.91776100  1
  O  O153  1  0.63024067  0.48530233  0.18688233  1
  O  O154  1  0.23400700  0.87792500  0.20003600  1
  O  O155  1  0.66002367  0.50447933  0.30307433  1
  O  O156  1  0.24011700  0.92034900  0.10599600  1
  O  O157  1  0.33430700  0.89252200  0.32035700  1
  O  O158  1  0.55821500  0.66569300  0.32035700  1
  O  O159  1  0.54826200  0.76057500  0.91776100  1
  O  O160  1  0.54826200  0.78768700  0.41776100  1
  O  O161  1  0.51112233  0.83781267  0.13640767  1
  O  O162  1  0.52172833  0.81863567  0.02021567  1
  O  O163  1  0.64391800  0.76599300  0.20003600  1
  O  O164  1  0.68023200  0.75988300  0.10599600  1
  O  O165  1  0.57345033  0.98643467  0.27266267  1
  O  O166  1  0.56734033  0.02274867  0.36670267  1
  O  O167  1  0.51469767  0.14493833  0.18688233  1
  O  O168  1  0.49552067  0.15554433  0.30307433  1
  O  O169  1  0.77414467  0.99902633  0.15369033  1
  O  O170  1  0.51112233  0.67330967  0.63640767  1
  O  O171  1  0.52172833  0.70309267  0.52021567  1
  O  O172  1  0.74631767  0.65310133  0.43932933  1
  O  O173  1  0.89154833  0.55918867  0.48702367  1
  O  O174  1  0.78874167  0.68941533  0.53336933  1
  O  O175  1  0.64391800  0.87792500  0.70003600  1
  O  O176  1  0.77414467  0.77511833  0.65369033  1
  O  O177  1  0.68023200  0.92034900  0.60599600  1
  O  O178  1  0.87897967  0.78507133  0.25109433  1
  O  O179  1  0.90609167  0.78507133  0.75109433  1
  O  O180  1  0.66764033  0.10845167  0.48702367  1
  O  O181  1  0.96357400  0.81160500  0.35354900  1
  O  O182  1  0.07965100  0.75988300  0.60599600  1
  O  O183  1  0.99335700  0.82221100  0.46974100  1
  O  O184  1  0.82885400  0.00664300  0.46974100  1
  O  O185  1  0.12207500  0.76599300  0.70003600  1
  O  O186  1  0.84803100  0.03642600  0.35354900  1
  O  O187  1  0.87897967  0.09390833  0.75109433  1
  O  O188  1  0.00000000  0.00000000  0.07578000  1
  O  O189  1  0.00000000  0.00000000  0.57578000  1
  O  O190  1  0.90609167  0.12102033  0.25109433  1
  O  O191  1  0.29690733  0.81863567  0.52021567  1
  O  O192  1  0.90067367  0.21125833  0.53336933  1
  O  O193  1  0.32669033  0.83781267  0.63640767  1
  O  O194  1  0.90678367  0.25368233  0.43932933  1
  O  O195  1  0.00097367  0.22585533  0.65369033  1
  O  O196  1  0.22488167  0.99902633  0.65369033  1
  O  O197  1  0.21492867  0.09390833  0.25109433  1
  O  O198  1  0.21492867  0.12102033  0.75109433  1
  O  O199  1  0.17778900  0.17114600  0.46974100  1
  O  O200  1  0.18839500  0.15196900  0.35354900  1
  O  O201  1  0.31058467  0.09932633  0.53336933  1
  O  O202  1  0.34689867  0.09321633  0.43932933  1
  O  O203  1  0.24011700  0.31976800  0.60599600  1
  O  O204  1  0.23400700  0.35608200  0.70003600  1
  O  O205  1  0.18136433  0.47827167  0.52021567  1
  O  O206  1  0.16218733  0.48887767  0.63640767  1
  O  O207  1  0.44081133  0.33235967  0.48702367  1
  O  O208  1  0.17778900  0.00664300  0.96974100  1
  O  O209  1  0.18839500  0.03642600  0.85354900  1
  O  O210  1  0.41298433  0.98643467  0.77266267  1
  O  O211  1  0.55821500  0.89252200  0.82035700  1
  O  O212  1  0.45540833  0.02274867  0.86670267  1
  O  O213  1  0.31058467  0.21125833  0.03336933  1
  O  O214  1  0.44081133  0.10845167  0.98702367  1
  O  O215  1  0.34689867  0.25368233  0.93932933  1
  O  O216  1  0.54564633  0.11840467  0.58442767  1
  O  O217  1  0.57275833  0.11840467  0.08442767  1
  O  O218  1  0.33430700  0.44178500  0.82035700  1
  O  O219  1  0.63024067  0.14493833  0.68688233  1
  O  O220  1  0.74631767  0.09321633  0.93932933  1
  O  O221  1  0.66002367  0.15554433  0.80307433  1
  O  O222  1  0.49552067  0.33997633  0.80307433  1
  O  O223  1  0.78874167  0.09932633  0.03336933  1
  O  O224  1  0.51469767  0.36975933  0.68688233  1
  O  O225  1  0.54564633  0.42724167  0.08442767  1
  O  O226  1  0.66666667  0.33333333  0.40911333  1
  O  O227  1  0.66666667  0.33333333  0.90911333  1
  O  O228  1  0.57275833  0.45435367  0.58442767  1
  O  O229  1  0.96357400  0.15196900  0.85354900  1
  O  O230  1  0.56734033  0.54459167  0.86670267  1
  O  O231  1  0.99335700  0.17114600  0.96974100  1
  O  O232  1  0.57345033  0.58701567  0.77266267  1
  O  O233  1  0.66764033  0.55918867  0.98702367  1
  O  O234  1  0.89154833  0.33235967  0.98702367  1
  O  O235  1  0.88159533  0.42724167  0.58442767  1
  O  O236  1  0.88159533  0.45435367  0.08442767  1
  O  O237  1  0.84445567  0.50447933  0.80307433  1
  O  O238  1  0.85506167  0.48530233  0.68688233  1
  O  O239  1  0.97725133  0.43265967  0.86670267  1
  O  O240  1  0.01356533  0.42654967  0.77266267  1
  O  O241  1  0.90678367  0.65310133  0.93932933  1
  O  O242  1  0.90067367  0.68941533  0.03336933  1
  O  O243  1  0.84803100  0.81160500  0.85354900  1
  O  O244  1  0.82885400  0.82221100  0.96974100  1
  O  O245  1  0.10747800  0.66569300  0.82035700  1
