# generated using pymatgen
data_Fe4OF7
_symmetry_space_group_name_H-M   'P 1'
_cell_length_a   6.83624000
_cell_length_b   6.90080800
_cell_length_c   12.71144000
_cell_angle_alpha   90.00000000
_cell_angle_beta   90.00000000
_cell_angle_gamma   90.00000000
_symmetry_Int_Tables_number   1
_chemical_formula_structural   Fe4OF7
_chemical_formula_sum   'Fe16 O4 F28'
_cell_volume   599.66955059
_cell_formula_units_Z   4
loop_
 _symmetry_equiv_pos_site_id
 _symmetry_equiv_pos_as_xyz
  1  'x, y, z'
loop_
 _atom_site_type_symbol
 _atom_site_label
 _atom_site_symmetry_multiplicity
 _atom_site_fract_x
 _atom_site_fract_y
 _atom_site_fract_z
 _atom_site_occupancy
  Fe  Fe0  1  0.97986100  0.00000000  0.75000000  1
  Fe  Fe1  1  0.00000000  0.00000000  0.00000000  1
  Fe  Fe2  1  0.02013900  0.00000000  0.25000000  1
  Fe  Fe3  1  0.00000000  0.00000000  0.50000000  1
  Fe  Fe4  1  0.50858900  0.00000000  0.86522500  1
  Fe  Fe5  1  0.49141100  0.00000000  0.36522500  1
  Fe  Fe6  1  0.50858900  0.00000000  0.63477500  1
  Fe  Fe7  1  0.49141100  0.00000000  0.13477500  1
  Fe  Fe8  1  0.47986100  0.50000000  0.75000000  1
  Fe  Fe9  1  0.50000000  0.50000000  0.00000000  1
  Fe  Fe10  1  0.52013900  0.50000000  0.25000000  1
  Fe  Fe11  1  0.50000000  0.50000000  0.50000000  1
  Fe  Fe12  1  0.00858900  0.50000000  0.86522500  1
  Fe  Fe13  1  0.99141100  0.50000000  0.36522500  1
  Fe  Fe14  1  0.00858900  0.50000000  0.63477500  1
  Fe  Fe15  1  0.99141100  0.50000000  0.13477500  1
  O  O16  1  0.30565800  0.00000000  0.25000000  1
  O  O17  1  0.69434200  0.00000000  0.75000000  1
  O  O18  1  0.80565800  0.50000000  0.25000000  1
  O  O19  1  0.19434200  0.50000000  0.75000000  1
  F  F20  1  0.49897800  0.29342200  0.87775700  1
  F  F21  1  0.50102200  0.29342200  0.12224300  1
  F  F22  1  0.50102200  0.29342200  0.37775700  1
  F  F23  1  0.49897800  0.29342200  0.62224300  1
  F  F24  1  0.28469300  0.00000000  0.75000000  1
  F  F25  1  0.30716600  0.00000000  0.99825800  1
  F  F26  1  0.30716600  0.00000000  0.50174200  1
  F  F27  1  0.69283400  0.00000000  0.00174200  1
  F  F28  1  0.71530700  0.00000000  0.25000000  1
  F  F29  1  0.69283400  0.00000000  0.49825800  1
  F  F30  1  0.49897800  0.70657800  0.87775700  1
  F  F31  1  0.50102200  0.70657800  0.12224300  1
  F  F32  1  0.50102200  0.70657800  0.37775700  1
  F  F33  1  0.49897800  0.70657800  0.62224300  1
  F  F34  1  0.99897800  0.79342200  0.87775700  1
  F  F35  1  0.00102200  0.79342200  0.12224300  1
  F  F36  1  0.00102200  0.79342200  0.37775700  1
  F  F37  1  0.99897800  0.79342200  0.62224300  1
  F  F38  1  0.78469300  0.50000000  0.75000000  1
  F  F39  1  0.80716600  0.50000000  0.99825800  1
  F  F40  1  0.80716600  0.50000000  0.50174200  1
  F  F41  1  0.19283400  0.50000000  0.00174200  1
  F  F42  1  0.21530700  0.50000000  0.25000000  1
  F  F43  1  0.19283400  0.50000000  0.49825800  1
  F  F44  1  0.99897800  0.20657800  0.87775700  1
  F  F45  1  0.00102200  0.20657800  0.12224300  1
  F  F46  1  0.00102200  0.20657800  0.37775700  1
  F  F47  1  0.99897800  0.20657800  0.62224300  1
