# generated using pymatgen
data_LiAg2F4
_symmetry_space_group_name_H-M   'P 1'
_cell_length_a   5.19868200
_cell_length_b   5.19868200
_cell_length_c   9.95036600
_cell_angle_alpha   90.00000000
_cell_angle_beta   90.00000000
_cell_angle_gamma   90.00000000
_symmetry_Int_Tables_number   1
_chemical_formula_structural   LiAg2F4
_chemical_formula_sum   'Li2 Ag4 F8'
_cell_volume   268.92152227
_cell_formula_units_Z   2
loop_
 _symmetry_equiv_pos_site_id
 _symmetry_equiv_pos_as_xyz
  1  'x, y, z'
loop_
 _atom_site_type_symbol
 _atom_site_label
 _atom_site_symmetry_multiplicity
 _atom_site_fract_x
 _atom_site_fract_y
 _atom_site_fract_z
 _atom_site_occupancy
  Li  Li0  1  0.00000000  0.00000000  0.00000000  1
  Li  Li1  1  0.50000000  0.50000000  0.50000000  1
  Ag  Ag2  1  0.50000000  0.00000000  0.25000000  1
  Ag  Ag3  1  0.50000000  0.50000000  0.00000000  1
  Ag  Ag4  1  0.00000000  0.50000000  0.75000000  1
  Ag  Ag5  1  0.00000000  0.00000000  0.50000000  1
  F  F6  1  0.68970250  0.23423050  0.41424250  1
  F  F7  1  0.73423050  0.81029750  0.08575750  1
  F  F8  1  0.31029750  0.76576950  0.41424250  1
  F  F9  1  0.26576950  0.18970250  0.08575750  1
  F  F10  1  0.18970250  0.73423050  0.91424250  1
  F  F11  1  0.23423050  0.31029750  0.58575750  1
  F  F12  1  0.81029750  0.26576950  0.91424250  1
  F  F13  1  0.76576950  0.68970250  0.58575750  1
