# generated using pymatgen
data_Li3Mn4SnO8
_symmetry_space_group_name_H-M   'P 1'
_cell_length_a   10.58818841
_cell_length_b   6.28699385
_cell_length_c   6.26501021
_cell_angle_alpha   90.00000000
_cell_angle_beta   125.32665367
_cell_angle_gamma   90.00000000
_symmetry_Int_Tables_number   1
_chemical_formula_structural   Li3Mn4SnO8
_chemical_formula_sum   'Li6 Mn8 Sn2 O16'
_cell_volume   340.25674544
_cell_formula_units_Z   2
loop_
 _symmetry_equiv_pos_site_id
 _symmetry_equiv_pos_as_xyz
  1  'x, y, z'
loop_
 _atom_site_type_symbol
 _atom_site_label
 _atom_site_symmetry_multiplicity
 _atom_site_fract_x
 _atom_site_fract_y
 _atom_site_fract_z
 _atom_site_occupancy
  Li  Li0  1  0.00000000  0.00000000  0.50000000  1
  Li  Li1  1  0.25000000  0.75000000  0.00000000  1
  Li  Li2  1  0.75000000  0.75000000  0.00000000  1
  Li  Li3  1  0.50000000  0.50000000  0.50000000  1
  Li  Li4  1  0.75000000  0.25000000  0.00000000  1
  Li  Li5  1  0.25000000  0.25000000  0.00000000  1
  Mn  Mn6  1  0.25000000  0.75000000  0.50000000  1
  Mn  Mn7  1  0.25000000  0.25000000  0.50000000  1
  Mn  Mn8  1  0.00000000  0.50000000  0.50000000  1
  Mn  Mn9  1  0.50000000  0.50000000  0.00000000  1
  Mn  Mn10  1  0.75000000  0.25000000  0.50000000  1
  Mn  Mn11  1  0.75000000  0.75000000  0.50000000  1
  Mn  Mn12  1  0.50000000  0.00000000  0.50000000  1
  Mn  Mn13  1  0.00000000  0.00000000  0.00000000  1
  Sn  Sn14  1  0.50000000  0.00000000  0.00000000  1
  Sn  Sn15  1  0.00000000  0.50000000  0.00000000  1
  O  O16  1  0.25789700  0.00000000  0.74628000  1
  O  O17  1  0.24210300  0.50000000  0.25372000  1
  O  O18  1  0.24973250  0.50000000  0.73437600  1
  O  O19  1  0.25026750  0.00000000  0.26562400  1
  O  O20  1  0.99301050  0.26039750  0.23259300  1
  O  O21  1  0.99301050  0.73960250  0.23259300  1
  O  O22  1  0.50698950  0.76039750  0.76740700  1
  O  O23  1  0.50698950  0.23960250  0.76740700  1
  O  O24  1  0.75789700  0.50000000  0.74628000  1
  O  O25  1  0.74210300  0.00000000  0.25372000  1
  O  O26  1  0.74973250  0.00000000  0.73437600  1
  O  O27  1  0.75026750  0.50000000  0.26562400  1
  O  O28  1  0.49301050  0.76039750  0.23259300  1
  O  O29  1  0.49301050  0.23960250  0.23259300  1
  O  O30  1  0.00698950  0.26039750  0.76740700  1
  O  O31  1  0.00698950  0.73960250  0.76740700  1
