# generated using pymatgen
data_Mn5Sn(PO4)6
_symmetry_space_group_name_H-M   'P 1'
_cell_length_a   8.66504612
_cell_length_b   8.66504612
_cell_length_c   21.34333147
_cell_angle_alpha   90.00000000
_cell_angle_beta   90.00000000
_cell_angle_gamma   120.00000000
_symmetry_Int_Tables_number   1
_chemical_formula_structural   Mn5Sn(PO4)6
_chemical_formula_sum   'Mn15 Sn3 P18 O72'
_cell_volume   1387.82465425
_cell_formula_units_Z   3
loop_
 _symmetry_equiv_pos_site_id
 _symmetry_equiv_pos_as_xyz
  1  'x, y, z'
loop_
 _atom_site_type_symbol
 _atom_site_label
 _atom_site_symmetry_multiplicity
 _atom_site_fract_x
 _atom_site_fract_y
 _atom_site_fract_z
 _atom_site_occupancy
  Mn  Mn0  1  0.66666667  0.33333333  0.33044233  1
  Mn  Mn1  1  0.33333333  0.66666667  0.31145467  1
  Mn  Mn2  1  0.33333333  0.66666667  0.16641067  1
  Mn  Mn3  1  0.66666667  0.33333333  0.18820533  1
  Mn  Mn4  1  0.33333333  0.66666667  0.02226867  1
  Mn  Mn5  1  0.33333333  0.66666667  0.66377567  1
  Mn  Mn6  1  0.00000000  0.00000000  0.64478800  1
  Mn  Mn7  1  0.00000000  0.00000000  0.49974400  1
  Mn  Mn8  1  0.33333333  0.66666667  0.52153867  1
  Mn  Mn9  1  0.00000000  0.00000000  0.35560200  1
  Mn  Mn10  1  0.00000000  0.00000000  0.99710900  1
  Mn  Mn11  1  0.66666667  0.33333333  0.97812133  1
  Mn  Mn12  1  0.66666667  0.33333333  0.83307733  1
  Mn  Mn13  1  0.00000000  0.00000000  0.85487200  1
  Mn  Mn14  1  0.66666667  0.33333333  0.68893533  1
  Sn  Sn15  1  0.00000000  0.00000000  0.14444200  1
  Sn  Sn16  1  0.66666667  0.33333333  0.47777533  1
  Sn  Sn17  1  0.33333333  0.66666667  0.81110867  1
  P  P18  1  0.29732600  0.99967600  0.25153700  1
  P  P19  1  0.00032400  0.29765000  0.25153700  1
  P  P20  1  0.70235000  0.70267400  0.25153700  1
  P  P21  1  0.95775800  0.62091900  0.08289900  1
  P  P22  1  0.66316100  0.04224200  0.08289900  1
  P  P23  1  0.37908100  0.33683900  0.08289900  1
  P  P24  1  0.96399267  0.33300933  0.58487033  1
  P  P25  1  0.66699067  0.63098333  0.58487033  1
  P  P26  1  0.36901667  0.03600733  0.58487033  1
  P  P27  1  0.62442467  0.95425233  0.41623233  1
  P  P28  1  0.32982767  0.37557533  0.41623233  1
  P  P29  1  0.04574767  0.67017233  0.41623233  1
  P  P30  1  0.63065933  0.66634267  0.91820367  1
  P  P31  1  0.33365733  0.96431667  0.91820367  1
  P  P32  1  0.03568333  0.36934067  0.91820367  1
  P  P33  1  0.29109133  0.28758567  0.74956567  1
  P  P34  1  0.99649433  0.70890867  0.74956567  1
  P  P35  1  0.71241433  0.00350567  0.74956567  1
  O  O36  1  0.99334767  0.19573333  0.31050733  1
  O  O37  1  0.80426667  0.79761433  0.31050733  1
  O  O38  1  0.20238567  0.00665233  0.31050733  1
  O  O39  1  0.48582000  0.16885800  0.25467000  1
  O  O40  1  0.20207200  0.99501500  0.18985300  1
  O  O41  1  0.31698133  0.83028467  0.24635067  1
  O  O42  1  0.83114200  0.31696200  0.25467000  1
  O  O43  1  0.16971533  0.48669667  0.24635067  1
  O  O44  1  0.86514033  0.52843267  0.14374667  1
  O  O45  1  0.51330333  0.68301867  0.24635067  1
  O  O46  1  0.97965933  0.81325967  0.07709467  1
  O  O47  1  0.66329233  0.13485967  0.14374667  1
  O  O48  1  0.00498500  0.20705700  0.18985300  1
  O  O49  1  0.68303800  0.51418000  0.25467000  1
  O  O50  1  0.14810000  0.64496700  0.08865400  1
  O  O51  1  0.79294300  0.79792800  0.18985300  1
  O  O52  1  0.49686700  0.85190000  0.08865400  1
  O  O53  1  0.83360033  0.02034067  0.07709467  1
  O  O54  1  0.35503300  0.50313300  0.08865400  1
  O  O55  1  0.47156733  0.33670767  0.14374667  1
  O  O56  1  0.18674033  0.16639967  0.07709467  1
  O  O57  1  0.47212300  0.33461000  0.02249800  1
  O  O58  1  0.86248700  0.52787700  0.02249800  1
  O  O59  1  0.66539000  0.13751300  0.02249800  1
  O  O60  1  0.66001433  0.52906667  0.64384067  1
  O  O61  1  0.47093333  0.13094767  0.64384067  1
  O  O62  1  0.86905233  0.33998567  0.64384067  1
  O  O63  1  0.15248667  0.50219133  0.58800333  1
  O  O64  1  0.86873867  0.32834833  0.52318633  1
  O  O65  1  0.98364800  0.16361800  0.57968400  1
  O  O66  1  0.49780867  0.65029533  0.58800333  1
  O  O67  1  0.83638200  0.82003000  0.57968400  1
  O  O68  1  0.53180700  0.86176600  0.47708000  1
  O  O69  1  0.17997000  0.01635200  0.57968400  1
  O  O70  1  0.64632600  0.14659300  0.41042800  1
  O  O71  1  0.32995900  0.46819300  0.47708000  1
  O  O72  1  0.67165167  0.54039033  0.52318633  1
  O  O73  1  0.34970467  0.84751333  0.58800333  1
  O  O74  1  0.81476667  0.97830033  0.42198733  1
  O  O75  1  0.45960967  0.13126133  0.52318633  1
  O  O76  1  0.16353367  0.18523333  0.42198733  1
  O  O77  1  0.50026700  0.35367400  0.41042800  1
  O  O78  1  0.02169967  0.83646633  0.42198733  1
  O  O79  1  0.13823400  0.67004100  0.47708000  1
  O  O80  1  0.85340700  0.49973300  0.41042800  1
  O  O81  1  0.13878967  0.66794333  0.35583133  1
  O  O82  1  0.52915367  0.86121033  0.35583133  1
  O  O83  1  0.33205667  0.47084633  0.35583133  1
  O  O84  1  0.32668100  0.86240000  0.97717400  1
  O  O85  1  0.13760000  0.46428100  0.97717400  1
  O  O86  1  0.53571900  0.67331900  0.97717400  1
  O  O87  1  0.81915333  0.83552467  0.92133667  1
  O  O88  1  0.53540533  0.66168167  0.85651967  1
  O  O89  1  0.65031467  0.49695133  0.91301733  1
  O  O90  1  0.16447533  0.98362867  0.92133667  1
  O  O91  1  0.50304867  0.15336333  0.91301733  1
  O  O92  1  0.19847367  0.19509933  0.81041333  1
  O  O93  1  0.84663667  0.34968533  0.91301733  1
  O  O94  1  0.31299267  0.47992633  0.74376133  1
  O  O95  1  0.99662567  0.80152633  0.81041333  1
  O  O96  1  0.33831833  0.87372367  0.85651967  1
  O  O97  1  0.01637133  0.18084667  0.92133667  1
  O  O98  1  0.48143333  0.31163367  0.75532067  1
  O  O99  1  0.12627633  0.46459467  0.85651967  1
  O  O100  1  0.83020033  0.51856667  0.75532067  1
  O  O101  1  0.16693367  0.68700733  0.74376133  1
  O  O102  1  0.68836633  0.16979967  0.75532067  1
  O  O103  1  0.80490067  0.00337433  0.81041333  1
  O  O104  1  0.52007367  0.83306633  0.74376133  1
  O  O105  1  0.80545633  0.00127667  0.68916467  1
  O  O106  1  0.19582033  0.19454367  0.68916467  1
  O  O107  1  0.99872333  0.80417967  0.68916467  1
