# generated using pymatgen
data_Li4Ti3VO8
_symmetry_space_group_name_H-M   'P 1'
_cell_length_a   5.91265314
_cell_length_b   5.91265314
_cell_length_c   14.93511262
_cell_angle_alpha   90.00000000
_cell_angle_beta   90.00000000
_cell_angle_gamma   120.00000000
_symmetry_Int_Tables_number   1
_chemical_formula_structural   Li4Ti3VO8
_chemical_formula_sum   'Li12 Ti9 V3 O24'
_cell_volume   452.17228379
_cell_formula_units_Z   3
loop_
 _symmetry_equiv_pos_site_id
 _symmetry_equiv_pos_as_xyz
  1  'x, y, z'
loop_
 _atom_site_type_symbol
 _atom_site_label
 _atom_site_symmetry_multiplicity
 _atom_site_fract_x
 _atom_site_fract_y
 _atom_site_fract_z
 _atom_site_occupancy
  Li  Li0  1  0.83333333  0.66666667  0.66666667  1
  Li  Li1  1  0.83333333  0.16666667  0.66666667  1
  Li  Li2  1  0.33333333  0.16666667  0.66666667  1
  Li  Li3  1  0.33333333  0.66666667  0.66666667  1
  Li  Li4  1  0.50000000  0.00000000  0.00000000  1
  Li  Li5  1  0.50000000  0.50000000  0.00000000  1
  Li  Li6  1  0.00000000  0.50000000  0.00000000  1
  Li  Li7  1  1.00000000  1.00000000  0.00000000  1
  Li  Li8  1  0.16666667  0.33333333  0.33333333  1
  Li  Li9  1  0.16666667  0.83333333  0.33333333  1
  Li  Li10  1  0.66666667  0.83333333  0.33333333  1
  Li  Li11  1  0.66666667  0.33333333  0.33333333  1
  Ti  Ti12  1  0.16666667  0.83333333  0.83333333  1
  Ti  Ti13  1  0.16666667  0.33333333  0.83333333  1
  Ti  Ti14  1  0.66666667  0.83333333  0.83333333  1
  Ti  Ti15  1  0.83333333  0.16666667  0.16666667  1
  Ti  Ti16  1  0.83333333  0.66666667  0.16666667  1
  Ti  Ti17  1  0.33333333  0.16666667  0.16666667  1
  Ti  Ti18  1  0.50000000  0.50000000  0.50000000  1
  Ti  Ti19  1  0.50000000  0.00000000  0.50000000  1
  Ti  Ti20  1  0.00000000  0.50000000  0.50000000  1
  V  V21  1  0.66666667  0.33333333  0.83333333  1
  V  V22  1  0.33333333  0.66666667  0.16666667  1
  V  V23  1  1.00000000  1.00000000  0.50000000  1
  O  O24  1  0.01155233  0.50577617  0.75525867  1
  O  O25  1  0.17244283  0.34488567  0.57807467  1
  O  O26  1  0.66666667  0.33333333  0.57816467  1
  O  O27  1  0.49422383  0.50577617  0.75525867  1
  O  O28  1  0.17244283  0.82755717  0.57807467  1
  O  O29  1  0.49422383  0.98844767  0.75525867  1
  O  O30  1  0.65511433  0.82755717  0.57807467  1
  O  O31  1  0.00000000  0.00000000  0.75516867  1
  O  O32  1  0.67821900  0.83910950  0.08859200  1
  O  O33  1  0.83910950  0.67821900  0.91140800  1
  O  O34  1  0.33333333  0.66666667  0.91149800  1
  O  O35  1  0.16089050  0.83910950  0.08859200  1
  O  O36  1  0.83910950  0.16089050  0.91140800  1
  O  O37  1  0.16089050  0.32178100  0.08859200  1
  O  O38  1  0.32178100  0.16089050  0.91140800  1
  O  O39  1  0.66666667  0.33333333  0.08850200  1
  O  O40  1  0.34488567  0.17244283  0.42192533  1
  O  O41  1  0.50577617  0.01155233  0.24474133  1
  O  O42  1  0.00000000  0.00000000  0.24483133  1
  O  O43  1  0.82755717  0.17244283  0.42192533  1
  O  O44  1  0.50577617  0.49422383  0.24474133  1
  O  O45  1  0.82755717  0.65511433  0.42192533  1
  O  O46  1  0.98844767  0.49422383  0.24474133  1
  O  O47  1  0.33333333  0.66666667  0.42183533  1
