# generated using pymatgen
data_Li2CoNi(PO4)2
_symmetry_space_group_name_H-M   'P 1'
_cell_length_a   4.74121505
_cell_length_b   5.96596903
_cell_length_c   10.20443101
_cell_angle_alpha   90.00000000
_cell_angle_beta   90.01026270
_cell_angle_gamma   90.00000000
_symmetry_Int_Tables_number   1
_chemical_formula_structural   Li2CoNi(PO4)2
_chemical_formula_sum   'Li4 Co2 Ni2 P4 O16'
_cell_volume   288.64194079
_cell_formula_units_Z   2
loop_
 _symmetry_equiv_pos_site_id
 _symmetry_equiv_pos_as_xyz
  1  'x, y, z'
loop_
 _atom_site_type_symbol
 _atom_site_label
 _atom_site_symmetry_multiplicity
 _atom_site_fract_x
 _atom_site_fract_y
 _atom_site_fract_z
 _atom_site_occupancy
  Li  Li0  1  0.00000000  0.00000000  0.50000000  1
  Li  Li1  1  0.00000000  0.50000000  0.50000000  1
  Li  Li2  1  0.50000000  0.00000000  0.00000000  1
  Li  Li3  1  0.50000000  0.50000000  0.00000000  1
  Co  Co4  1  0.01813700  0.75000000  0.22394250  1
  Co  Co5  1  0.98186300  0.25000000  0.77605750  1
  Ni  Ni6  1  0.51663800  0.25000000  0.27665750  1
  Ni  Ni7  1  0.48336200  0.75000000  0.72334250  1
  P  P8  1  0.41974800  0.25000000  0.59284850  1
  P  P9  1  0.58025200  0.75000000  0.40715150  1
  P  P10  1  0.91879600  0.75000000  0.90472550  1
  P  P11  1  0.08120400  0.25000000  0.09527450  1
  O  O12  1  0.70240700  0.75000000  0.54881250  1
  O  O13  1  0.29759300  0.25000000  0.45118750  1
  O  O14  1  0.74379800  0.25000000  0.59699650  1
  O  O15  1  0.25620200  0.75000000  0.40300350  1
  O  O16  1  0.24272200  0.75000000  0.89943850  1
  O  O17  1  0.75727800  0.25000000  0.10056150  1
  O  O18  1  0.20229200  0.25000000  0.95322950  1
  O  O19  1  0.79770800  0.75000000  0.04677050  1
  O  O20  1  0.28450100  0.04291000  0.66525550  1
  O  O21  1  0.28450100  0.45709000  0.66525550  1
  O  O22  1  0.71549900  0.54291000  0.33474450  1
  O  O23  1  0.71549900  0.95709000  0.33474450  1
  O  O24  1  0.77824900  0.54420900  0.83399350  1
  O  O25  1  0.77824900  0.95579100  0.83399350  1
  O  O26  1  0.22175100  0.04420900  0.16600650  1
  O  O27  1  0.22175100  0.45579100  0.16600650  1
