# generated using pymatgen
data_LiTi2V3O10
_symmetry_space_group_name_H-M   'P 1'
_cell_length_a   5.10595602
_cell_length_b   5.14595838
_cell_length_c   7.81559309
_cell_angle_alpha   74.42687396
_cell_angle_beta   76.12108683
_cell_angle_gamma   79.23297085
_symmetry_Int_Tables_number   1
_chemical_formula_structural   LiTi2V3O10
_chemical_formula_sum   'Li1 Ti2 V3 O10'
_cell_volume   190.38830879
_cell_formula_units_Z   1
loop_
 _symmetry_equiv_pos_site_id
 _symmetry_equiv_pos_as_xyz
  1  'x, y, z'
loop_
 _atom_site_type_symbol
 _atom_site_label
 _atom_site_symmetry_multiplicity
 _atom_site_fract_x
 _atom_site_fract_y
 _atom_site_fract_z
 _atom_site_occupancy
  Li  Li0  1  0.49760750  0.30025150  0.54595600  1
  Ti  Ti1  1  0.03761600  0.87302800  0.68652100  1
  Ti  Ti2  1  0.02113300  0.08942600  0.32425300  1
  V  V3  1  0.49109650  0.99308600  0.00314800  1
  V  V4  1  0.97093600  0.30733250  0.89027200  1
  V  V5  1  0.97980450  0.66763900  0.13088200  1
  O  O6  1  0.22181750  0.96447350  0.86152700  1
  O  O7  1  0.79637500  0.92037200  0.52659700  1
  O  O8  1  0.79170600  0.67116950  0.93515500  1
  O  O9  1  0.24556150  0.79544950  0.21842000  1
  O  O10  1  0.19219500  0.52093350  0.69007200  1
  O  O11  1  0.80637500  0.45884700  0.32248600  1
  O  O12  1  0.73901400  0.20564100  0.78637200  1
  O  O13  1  0.19701700  0.32745950  0.06446800  1
  O  O14  1  0.24045250  0.09032300  0.47940600  1
  O  O15  1  0.77872300  0.03628400  0.12875300  1
