# generated using pymatgen
data_LiNi3O4
_symmetry_space_group_name_H-M   'P 1'
_cell_length_a   5.87318461
_cell_length_b   8.43169025
_cell_length_c   5.82978031
_cell_angle_alpha   90.00000000
_cell_angle_beta   90.00000000
_cell_angle_gamma   90.00000000
_symmetry_Int_Tables_number   1
_chemical_formula_structural   LiNi3O4
_chemical_formula_sum   'Li4 Ni12 O16'
_cell_volume   288.69581290
_cell_formula_units_Z   4
loop_
 _symmetry_equiv_pos_site_id
 _symmetry_equiv_pos_as_xyz
  1  'x, y, z'
loop_
 _atom_site_type_symbol
 _atom_site_label
 _atom_site_symmetry_multiplicity
 _atom_site_fract_x
 _atom_site_fract_y
 _atom_site_fract_z
 _atom_site_occupancy
  Li  Li0  1  0.50000000  0.00000000  0.50000000  1
  Li  Li1  1  0.50000000  0.00000000  0.00000000  1
  Li  Li2  1  0.00000000  0.50000000  0.50000000  1
  Li  Li3  1  0.00000000  0.50000000  0.00000000  1
  Ni  Ni4  1  0.50000000  0.50000000  0.00000000  1
  Ni  Ni5  1  0.75000000  0.75000000  0.25169000  1
  Ni  Ni6  1  0.25000000  0.75000000  0.74831000  1
  Ni  Ni7  1  0.00000000  0.00000000  0.50000000  1
  Ni  Ni8  1  0.75000000  0.75000000  0.74831000  1
  Ni  Ni9  1  0.25000000  0.75000000  0.25169000  1
  Ni  Ni10  1  0.00000000  0.00000000  0.00000000  1
  Ni  Ni11  1  0.25000000  0.25000000  0.25169000  1
  Ni  Ni12  1  0.75000000  0.25000000  0.74831000  1
  Ni  Ni13  1  0.50000000  0.50000000  0.50000000  1
  Ni  Ni14  1  0.25000000  0.25000000  0.74831000  1
  Ni  Ni15  1  0.75000000  0.25000000  0.25169000  1
  O  O16  1  0.27107950  0.50000000  0.73894500  1
  O  O17  1  0.27107950  0.50000000  0.26105500  1
  O  O18  1  0.22892050  0.00000000  0.73894500  1
  O  O19  1  0.22892050  0.00000000  0.26105500  1
  O  O20  1  0.50000000  0.74964900  0.50000000  1
  O  O21  1  0.50000000  0.75233300  0.00000000  1
  O  O22  1  0.00000000  0.75035100  0.50000000  1
  O  O23  1  0.00000000  0.74766700  0.00000000  1
  O  O24  1  0.77107950  0.00000000  0.73894500  1
  O  O25  1  0.77107950  0.00000000  0.26105500  1
  O  O26  1  0.72892050  0.50000000  0.73894500  1
  O  O27  1  0.72892050  0.50000000  0.26105500  1
  O  O28  1  0.00000000  0.24964900  0.50000000  1
  O  O29  1  0.00000000  0.25233300  0.00000000  1
  O  O30  1  0.50000000  0.25035100  0.50000000  1
  O  O31  1  0.50000000  0.24766700  0.00000000  1
