# generated using pymatgen
data_Co3NiO8
_symmetry_space_group_name_H-M   'P 1'
_cell_length_a   5.62447825
_cell_length_b   5.62447825
_cell_length_c   13.81071186
_cell_angle_alpha   90.00000000
_cell_angle_beta   90.00000000
_cell_angle_gamma   120.00000000
_symmetry_Int_Tables_number   1
_chemical_formula_structural   Co3NiO8
_chemical_formula_sum   'Co9 Ni3 O24'
_cell_volume   378.36519485
_cell_formula_units_Z   3
loop_
 _symmetry_equiv_pos_site_id
 _symmetry_equiv_pos_as_xyz
  1  'x, y, z'
loop_
 _atom_site_type_symbol
 _atom_site_label
 _atom_site_symmetry_multiplicity
 _atom_site_fract_x
 _atom_site_fract_y
 _atom_site_fract_z
 _atom_site_occupancy
  Co  Co0  1  0.50000000  0.00000000  0.00000000  1
  Co  Co1  1  0.33333333  0.16666667  0.66666667  1
  Co  Co2  1  0.83333333  0.16666667  0.66666667  1
  Co  Co3  1  0.16666667  0.33333333  0.33333333  1
  Co  Co4  1  1.00000000  0.50000000  1.00000000  1
  Co  Co5  1  0.50000000  0.50000000  1.00000000  1
  Co  Co6  1  0.83333333  0.66666667  0.66666667  1
  Co  Co7  1  0.66666667  0.83333333  0.33333333  1
  Co  Co8  1  0.16666667  0.83333333  0.33333333  1
  Ni  Ni9  1  0.66666667  0.33333333  0.83333333  1
  Ni  Ni10  1  0.33333333  0.66666667  0.16666667  1
  Ni  Ni11  1  1.00000000  1.00000000  0.50000000  1
  O  O12  1  0.33333333  0.66666667  0.93071733  1
  O  O13  1  0.00000000  0.00000000  0.73594933  1
  O  O14  1  0.37151567  0.18575783  0.92070833  1
  O  O15  1  0.81424217  0.62848433  0.92070833  1
  O  O16  1  0.81424217  0.18575783  0.92070833  1
  O  O17  1  0.51909117  0.48090883  0.74595833  1
  O  O18  1  0.51909117  0.03818233  0.74595833  1
  O  O19  1  0.96181767  0.48090883  0.74595833  1
  O  O20  1  0.00000000  0.00000000  0.26405067  1
  O  O21  1  0.66666667  0.33333333  0.06928267  1
  O  O22  1  0.03818233  0.51909117  0.25404167  1
  O  O23  1  0.48090883  0.96181767  0.25404167  1
  O  O24  1  0.48090883  0.51909117  0.25404167  1
  O  O25  1  0.18575783  0.81424217  0.07929167  1
  O  O26  1  0.18575783  0.37151567  0.07929167  1
  O  O27  1  0.62848433  0.81424217  0.07929167  1
  O  O28  1  0.66666667  0.33333333  0.59738400  1
  O  O29  1  0.33333333  0.66666667  0.40261600  1
  O  O30  1  0.70484900  0.85242450  0.58737500  1
  O  O31  1  0.14757550  0.29515100  0.58737500  1
  O  O32  1  0.14757550  0.85242450  0.58737500  1
  O  O33  1  0.85242450  0.14757550  0.41262500  1
  O  O34  1  0.85242450  0.70484900  0.41262500  1
  O  O35  1  0.29515100  0.14757550  0.41262500  1
