# generated using pymatgen
data_Li3TiCr3O8
_symmetry_space_group_name_H-M   'P 1'
_cell_length_a   5.92873041
_cell_length_b   5.92873041
_cell_length_c   14.81292361
_cell_angle_alpha   90.00000000
_cell_angle_beta   90.00000000
_cell_angle_gamma   120.00000000
_symmetry_Int_Tables_number   1
_chemical_formula_structural   Li3TiCr3O8
_chemical_formula_sum   'Li9 Ti3 Cr9 O24'
_cell_volume   450.91514304
_cell_formula_units_Z   3
loop_
 _symmetry_equiv_pos_site_id
 _symmetry_equiv_pos_as_xyz
  1  'x, y, z'
loop_
 _atom_site_type_symbol
 _atom_site_label
 _atom_site_symmetry_multiplicity
 _atom_site_fract_x
 _atom_site_fract_y
 _atom_site_fract_z
 _atom_site_occupancy
  Li  Li0  1  0.16666667  0.33333333  0.83333333  1
  Li  Li1  1  0.66666667  0.83333333  0.83333333  1
  Li  Li2  1  0.16666667  0.83333333  0.83333333  1
  Li  Li3  1  0.83333333  0.66666667  0.16666667  1
  Li  Li4  1  0.33333333  0.16666667  0.16666667  1
  Li  Li5  1  0.83333333  0.16666667  0.16666667  1
  Li  Li6  1  0.50000000  0.00000000  0.50000000  1
  Li  Li7  1  0.00000000  0.50000000  0.50000000  1
  Li  Li8  1  0.50000000  0.50000000  0.50000000  1
  Ti  Ti9  1  0.33333333  0.66666667  0.66666667  1
  Ti  Ti10  1  1.00000000  1.00000000  0.00000000  1
  Ti  Ti11  1  0.66666667  0.33333333  0.33333333  1
  Cr  Cr12  1  0.83333333  0.66666667  0.66666667  1
  Cr  Cr13  1  0.33333333  0.16666667  0.66666667  1
  Cr  Cr14  1  0.50000000  0.50000000  0.00000000  1
  Cr  Cr15  1  0.50000000  0.00000000  0.00000000  1
  Cr  Cr16  1  0.00000000  0.50000000  0.00000000  1
  Cr  Cr17  1  0.16666667  0.83333333  0.33333333  1
  Cr  Cr18  1  0.16666667  0.33333333  0.33333333  1
  Cr  Cr19  1  0.66666667  0.83333333  0.33333333  1
  Cr  Cr20  1  0.83333333  0.16666667  0.66666667  1
  O  O21  1  0.00000000  0.00000000  0.73948833  1
  O  O22  1  0.33333333  0.66666667  0.92717833  1
  O  O23  1  0.49464917  0.98929833  0.73667983  1
  O  O24  1  0.01070167  0.50535083  0.73667983  1
  O  O25  1  0.49464917  0.50535083  0.73667983  1
  O  O26  1  0.83868417  0.67736833  0.92998683  1
  O  O27  1  0.32263167  0.16131583  0.92998683  1
  O  O28  1  0.83868417  0.16131583  0.92998683  1
  O  O29  1  0.66666667  0.33333333  0.07282167  1
  O  O30  1  0.00000000  0.00000000  0.26051167  1
  O  O31  1  0.16131583  0.32263167  0.07001317  1
  O  O32  1  0.67736833  0.83868417  0.07001317  1
  O  O33  1  0.16131583  0.83868417  0.07001317  1
  O  O34  1  0.50535083  0.01070167  0.26332017  1
  O  O35  1  0.98929833  0.49464917  0.26332017  1
  O  O36  1  0.50535083  0.49464917  0.26332017  1
  O  O37  1  0.33333333  0.66666667  0.40615500  1
  O  O38  1  0.66666667  0.33333333  0.59384500  1
  O  O39  1  0.82798250  0.65596500  0.40334650  1
  O  O40  1  0.34403500  0.17201750  0.40334650  1
  O  O41  1  0.82798250  0.17201750  0.40334650  1
  O  O42  1  0.17201750  0.34403500  0.59665350  1
  O  O43  1  0.65596500  0.82798250  0.59665350  1
  O  O44  1  0.17201750  0.82798250  0.59665350  1
