# generated using pymatgen
data_Li3FeS3
_symmetry_space_group_name_H-M   'P 1'
_cell_length_a   7.05838000
_cell_length_b   11.36929800
_cell_length_c   6.31516784
_cell_angle_alpha   90.00000000
_cell_angle_beta   102.35154498
_cell_angle_gamma   90.00000000
_symmetry_Int_Tables_number   1
_chemical_formula_structural   Li3FeS3
_chemical_formula_sum   'Li12 Fe4 S12'
_cell_volume   495.05452374
_cell_formula_units_Z   4
loop_
 _symmetry_equiv_pos_site_id
 _symmetry_equiv_pos_as_xyz
  1  'x, y, z'
loop_
 _atom_site_type_symbol
 _atom_site_label
 _atom_site_symmetry_multiplicity
 _atom_site_fract_x
 _atom_site_fract_y
 _atom_site_fract_z
 _atom_site_occupancy
  Li  Li0  1  0.41542300  0.00000000  0.65776400  1
  Li  Li1  1  0.50000000  0.32557500  0.50000000  1
  Li  Li2  1  0.50000000  0.67442500  0.50000000  1
  Li  Li3  1  0.50000000  0.75067700  0.00000000  1
  Li  Li4  1  0.50000000  0.24932300  0.00000000  1
  Li  Li5  1  0.58457700  0.00000000  0.34223600  1
  Li  Li6  1  0.91542300  0.50000000  0.65776400  1
  Li  Li7  1  0.00000000  0.82557500  0.50000000  1
  Li  Li8  1  0.00000000  0.17442500  0.50000000  1
  Li  Li9  1  0.00000000  0.25067700  0.00000000  1
  Li  Li10  1  0.00000000  0.74932300  0.00000000  1
  Li  Li11  1  0.08457700  0.50000000  0.34223600  1
  Fe  Fe12  1  0.17504300  0.00000000  0.13527400  1
  Fe  Fe13  1  0.82495700  0.00000000  0.86472600  1
  Fe  Fe14  1  0.67504300  0.50000000  0.13527400  1
  Fe  Fe15  1  0.32495700  0.50000000  0.86472600  1
  S  S16  1  0.11692400  0.00000000  0.76926200  1
  S  S17  1  0.32956500  0.83856000  0.26209300  1
  S  S18  1  0.32956500  0.16144000  0.26209300  1
  S  S19  1  0.67043500  0.16144000  0.73790700  1
  S  S20  1  0.67043500  0.83856000  0.73790700  1
  S  S21  1  0.88307600  0.00000000  0.23073800  1
  S  S22  1  0.61692400  0.50000000  0.76926200  1
  S  S23  1  0.82956500  0.33856000  0.26209300  1
  S  S24  1  0.82956500  0.66144000  0.26209300  1
  S  S25  1  0.17043500  0.66144000  0.73790700  1
  S  S26  1  0.17043500  0.33856000  0.73790700  1
  S  S27  1  0.38307600  0.50000000  0.23073800  1
