# generated using pymatgen
data_Na5Li3V8O24
_symmetry_space_group_name_H-M   'P 1'
_cell_length_a   10.52594600
_cell_length_b   9.32834200
_cell_length_c   11.82896017
_cell_angle_alpha   90.00000000
_cell_angle_beta   109.29554238
_cell_angle_gamma   90.00000000
_symmetry_Int_Tables_number   1
_chemical_formula_structural   Na5Li3V8O24
_chemical_formula_sum   'Na10 Li6 V16 O48'
_cell_volume   1096.23688068
_cell_formula_units_Z   2
loop_
 _symmetry_equiv_pos_site_id
 _symmetry_equiv_pos_as_xyz
  1  'x, y, z'
loop_
 _atom_site_type_symbol
 _atom_site_label
 _atom_site_symmetry_multiplicity
 _atom_site_fract_x
 _atom_site_fract_y
 _atom_site_fract_z
 _atom_site_occupancy
  Na  Na0  1  0.00000000  0.71272100  0.50000000  1
  Na  Na1  1  0.99948350  0.28878250  0.25125300  1
  Na  Na2  1  0.00000000  0.71009200  0.00000000  1
  Na  Na3  1  0.00000000  0.08322800  0.00000000  1
  Na  Na4  1  0.00051650  0.28878250  0.74874700  1
  Na  Na5  1  0.50000000  0.21272100  0.50000000  1
  Na  Na6  1  0.49948350  0.78878250  0.25125300  1
  Na  Na7  1  0.50000000  0.21009200  0.00000000  1
  Na  Na8  1  0.50000000  0.58322800  0.00000000  1
  Na  Na9  1  0.50051650  0.78878250  0.74874700  1
  Li  Li10  1  0.00000000  0.08744500  0.50000000  1
  Li  Li11  1  0.00013550  0.91149650  0.25167500  1
  Li  Li12  1  0.99986450  0.91149650  0.74832500  1
  Li  Li13  1  0.50000000  0.58744500  0.50000000  1
  Li  Li14  1  0.50013550  0.41149650  0.25167500  1
  Li  Li15  1  0.49986450  0.41149650  0.74832500  1
  V  V16  1  0.78874550  0.40793150  0.49896600  1
  V  V17  1  0.79097900  0.59286600  0.25193500  1
  V  V18  1  0.78759100  0.40960100  0.99830600  1
  V  V19  1  0.78871000  0.59197700  0.74864600  1
  V  V20  1  0.21125450  0.40793150  0.50103400  1
  V  V21  1  0.21129000  0.59197700  0.25135400  1
  V  V22  1  0.21240900  0.40960100  0.00169400  1
  V  V23  1  0.20902100  0.59286600  0.74806500  1
  V  V24  1  0.28874550  0.90793150  0.49896600  1
  V  V25  1  0.29097900  0.09286600  0.25193500  1
  V  V26  1  0.28759100  0.90960100  0.99830600  1
  V  V27  1  0.28871000  0.09197700  0.74864600  1
  V  V28  1  0.71125450  0.90793150  0.50103400  1
  V  V29  1  0.71129000  0.09197700  0.25135400  1
  V  V30  1  0.71240900  0.90960100  0.00169400  1
  V  V31  1  0.70902100  0.09286600  0.74806500  1
  O  O32  1  0.61854850  0.40503050  0.44928800  1
  O  O33  1  0.62148300  0.59611900  0.20878400  1
  O  O34  1  0.61816800  0.39939200  0.94366300  1
  O  O35  1  0.85327550  0.24266250  0.52577100  1
  O  O36  1  0.85651050  0.49771950  0.39384200  1
  O  O37  1  0.61862900  0.59511800  0.69932300  1
  O  O38  1  0.85547500  0.75818800  0.27831800  1
  O  O39  1  0.85065200  0.50464300  0.14104300  1
  O  O40  1  0.84982050  0.24510950  0.03114300  1
  O  O41  1  0.85470650  0.49761650  0.89170700  1
  O  O42  1  0.14348950  0.49771950  0.60615800  1
  O  O43  1  0.85324050  0.75736950  0.77570600  1
  O  O44  1  0.14672450  0.24266250  0.47422900  1
  O  O45  1  0.85366800  0.50163300  0.64205100  1
  O  O46  1  0.14633200  0.50163300  0.35794900  1
  O  O47  1  0.14675950  0.75736950  0.22429400  1
  O  O48  1  0.14529350  0.49761650  0.10829300  1
  O  O49  1  0.15017950  0.24510950  0.96885700  1
  O  O50  1  0.38145150  0.40503050  0.55071200  1
  O  O51  1  0.14934800  0.50464300  0.85895700  1
  O  O52  1  0.14452500  0.75818800  0.72168200  1
  O  O53  1  0.38137100  0.59511800  0.30067700  1
  O  O54  1  0.38183200  0.39939200  0.05633700  1
  O  O55  1  0.37851700  0.59611900  0.79121600  1
  O  O56  1  0.11854850  0.90503050  0.44928800  1
  O  O57  1  0.12148300  0.09611900  0.20878400  1
  O  O58  1  0.11816800  0.89939200  0.94366300  1
  O  O59  1  0.35327550  0.74266250  0.52577100  1
  O  O60  1  0.35651050  0.99771950  0.39384200  1
  O  O61  1  0.11862900  0.09511800  0.69932300  1
  O  O62  1  0.35547500  0.25818800  0.27831800  1
  O  O63  1  0.35065200  0.00464300  0.14104300  1
  O  O64  1  0.34982050  0.74510950  0.03114300  1
  O  O65  1  0.35470650  0.99761650  0.89170700  1
  O  O66  1  0.64348950  0.99771950  0.60615800  1
  O  O67  1  0.35324050  0.25736950  0.77570600  1
  O  O68  1  0.64672450  0.74266250  0.47422900  1
  O  O69  1  0.35366800  0.00163300  0.64205100  1
  O  O70  1  0.64633200  0.00163300  0.35794900  1
  O  O71  1  0.64675950  0.25736950  0.22429400  1
  O  O72  1  0.64529350  0.99761650  0.10829300  1
  O  O73  1  0.65017950  0.74510950  0.96885700  1
  O  O74  1  0.88145150  0.90503050  0.55071200  1
  O  O75  1  0.64934800  0.00464300  0.85895700  1
  O  O76  1  0.64452500  0.25818800  0.72168200  1
  O  O77  1  0.88137100  0.09511800  0.30067700  1
  O  O78  1  0.88183200  0.89939200  0.05633700  1
  O  O79  1  0.87851700  0.09611900  0.79121600  1
