# generated using pymatgen
data_Sr3W2O9
_symmetry_space_group_name_H-M   'P 1'
_cell_length_a   9.91766122
_cell_length_b   9.91766122
_cell_length_c   13.81427601
_cell_angle_alpha   90.00000000
_cell_angle_beta   90.00000000
_cell_angle_gamma   120.00000000
_symmetry_Int_Tables_number   1
_chemical_formula_structural   Sr3W2O9
_chemical_formula_sum   'Sr18 W12 O54'
_cell_volume   1176.73128232
_cell_formula_units_Z   6
loop_
 _symmetry_equiv_pos_site_id
 _symmetry_equiv_pos_as_xyz
  1  'x, y, z'
loop_
 _atom_site_type_symbol
 _atom_site_label
 _atom_site_symmetry_multiplicity
 _atom_site_fract_x
 _atom_site_fract_y
 _atom_site_fract_z
 _atom_site_occupancy
  Sr  Sr0  1  0.00000000  0.32662800  0.25000000  1
  Sr  Sr1  1  0.99329467  0.65996133  0.08333333  1
  Sr  Sr2  1  0.34003867  0.33333333  0.08333333  1
  Sr  Sr3  1  0.32662800  0.00000000  0.25000000  1
  Sr  Sr4  1  0.67337200  0.67337200  0.25000000  1
  Sr  Sr5  1  0.66666667  0.00670533  0.08333333  1
  Sr  Sr6  1  0.66666667  0.65996133  0.58333333  1
  Sr  Sr7  1  0.65996133  0.99329467  0.41666667  1
  Sr  Sr8  1  0.00670533  0.66666667  0.41666667  1
  Sr  Sr9  1  0.99329467  0.33333333  0.58333333  1
  Sr  Sr10  1  0.34003867  0.00670533  0.58333333  1
  Sr  Sr11  1  0.33333333  0.34003867  0.41666667  1
  Sr  Sr12  1  0.33333333  0.99329467  0.91666667  1
  Sr  Sr13  1  0.32662800  0.32662800  0.75000000  1
  Sr  Sr14  1  0.67337200  0.00000000  0.75000000  1
  Sr  Sr15  1  0.65996133  0.66666667  0.91666667  1
  Sr  Sr16  1  0.00670533  0.34003867  0.91666667  1
  Sr  Sr17  1  0.00000000  0.67337200  0.75000000  1
  W  W18  1  0.33333333  0.66666667  0.52320667  1
  W  W19  1  0.33333333  0.66666667  0.02320667  1
  W  W20  1  0.33333333  0.66666667  0.81012667  1
  W  W21  1  0.33333333  0.66666667  0.31012667  1
  W  W22  1  0.00000000  0.00000000  0.85654000  1
  W  W23  1  0.00000000  0.00000000  0.35654000  1
  W  W24  1  0.00000000  0.00000000  0.14346000  1
  W  W25  1  1.00000000  0.00000000  0.64346000  1
  W  W26  1  0.66666667  0.33333333  0.18987333  1
  W  W27  1  0.66666667  0.33333333  0.68987333  1
  W  W28  1  0.66666667  0.33333333  0.47679333  1
  W  W29  1  0.66666667  0.33333333  0.97679333  1
  O  O30  1  0.99717600  0.16739900  0.08698300  1
  O  O31  1  0.83406567  0.50355633  0.24635033  1
  O  O32  1  0.18206233  0.51539567  0.41666667  1
  O  O33  1  0.16311033  0.49926767  0.07968367  1
  O  O34  1  0.18206233  0.66666667  0.91666667  1
  O  O35  1  0.33333333  0.51539567  0.91666667  1
  O  O36  1  0.16593433  0.66949067  0.25364967  1
  O  O37  1  0.33050933  0.49644367  0.25364967  1
  O  O38  1  0.49644367  0.33050933  0.24635033  1
  O  O39  1  0.17022300  0.00282400  0.08698300  1
  O  O40  1  0.33615733  0.83688967  0.07968367  1
  O  O41  1  0.48460433  0.66666667  0.41666667  1
  O  O42  1  0.50073233  0.66384267  0.07968367  1
  O  O43  1  0.33333333  0.81793767  0.41666667  1
  O  O44  1  0.50355633  0.83406567  0.25364967  1
  O  O45  1  0.48460433  0.81793767  0.91666667  1
  O  O46  1  0.83260100  0.82977700  0.08698300  1
  O  O47  1  0.66949067  0.16593433  0.24635033  1
  O  O48  1  0.66384267  0.50073233  0.42031633  1
  O  O49  1  0.50073233  0.83688967  0.57968367  1
  O  O50  1  0.84872900  0.84872900  0.75000000  1
  O  O51  1  0.82977700  0.83260100  0.41301700  1
  O  O52  1  0.84872900  0.00000000  0.25000000  1
  O  O53  1  0.00000000  0.84872900  0.25000000  1
  O  O54  1  0.83260100  0.00282400  0.58698300  1
  O  O55  1  0.99717600  0.82977700  0.58698300  1
  O  O56  1  0.16311033  0.66384267  0.57968367  1
  O  O57  1  0.83688967  0.33615733  0.42031633  1
  O  O58  1  0.00282400  0.17022300  0.41301700  1
  O  O59  1  0.15127100  0.00000000  0.75000000  1
  O  O60  1  0.16739900  0.99717600  0.41301700  1
  O  O61  1  0.00000000  0.15127100  0.75000000  1
  O  O62  1  0.17022300  0.16739900  0.58698300  1
  O  O63  1  0.15127100  0.15127100  0.25000000  1
  O  O64  1  0.49926767  0.16311033  0.42031633  1
  O  O65  1  0.33615733  0.49926767  0.57968367  1
  O  O66  1  0.33050933  0.83406567  0.75364967  1
  O  O67  1  0.16739900  0.17022300  0.91301700  1
  O  O68  1  0.51539567  0.18206233  0.08333333  1
  O  O69  1  0.49644367  0.16593433  0.74635033  1
  O  O70  1  0.51539567  0.33333333  0.58333333  1
  O  O71  1  0.66666667  0.18206233  0.58333333  1
  O  O72  1  0.49926767  0.33615733  0.92031633  1
  O  O73  1  0.66384267  0.16311033  0.92031633  1
  O  O74  1  0.82977700  0.99717600  0.91301700  1
  O  O75  1  0.50355633  0.66949067  0.75364967  1
  O  O76  1  0.66949067  0.50355633  0.74635033  1
  O  O77  1  0.81793767  0.33333333  0.08333333  1
  O  O78  1  0.83406567  0.33050933  0.74635033  1
  O  O79  1  0.66666667  0.48460433  0.08333333  1
  O  O80  1  0.83688967  0.50073233  0.92031633  1
  O  O81  1  0.81793767  0.48460433  0.58333333  1
  O  O82  1  0.16593433  0.49644367  0.75364967  1
  O  O83  1  0.00282400  0.83260100  0.91301700  1
