# generated using pymatgen
data_Li2BiO3
_symmetry_space_group_name_H-M   'P 1'
_cell_length_a   5.73683000
_cell_length_b   10.13132600
_cell_length_c   5.60312500
_cell_angle_alpha   90.00000000
_cell_angle_beta   90.00000000
_cell_angle_gamma   90.00000000
_symmetry_Int_Tables_number   1
_chemical_formula_structural   Li2BiO3
_chemical_formula_sum   'Li8 Bi4 O12'
_cell_volume   325.66312194
_cell_formula_units_Z   4
loop_
 _symmetry_equiv_pos_site_id
 _symmetry_equiv_pos_as_xyz
  1  'x, y, z'
loop_
 _atom_site_type_symbol
 _atom_site_label
 _atom_site_symmetry_multiplicity
 _atom_site_fract_x
 _atom_site_fract_y
 _atom_site_fract_z
 _atom_site_occupancy
  Li  Li0  1  0.17287600  0.32025000  0.97126700  1
  Li  Li1  1  0.82712400  0.32025000  0.47126700  1
  Li  Li2  1  0.32712400  0.17975000  0.47126700  1
  Li  Li3  1  0.67287600  0.17975000  0.97126700  1
  Li  Li4  1  0.67287600  0.82025000  0.97126700  1
  Li  Li5  1  0.32712400  0.82025000  0.47126700  1
  Li  Li6  1  0.82712400  0.67975000  0.47126700  1
  Li  Li7  1  0.17287600  0.67975000  0.97126700  1
  Bi  Bi8  1  0.20927500  0.00000000  0.96688400  1
  Bi  Bi9  1  0.79072500  0.00000000  0.46688400  1
  Bi  Bi10  1  0.70927500  0.50000000  0.96688400  1
  Bi  Bi11  1  0.29072500  0.50000000  0.46688400  1
  O  O12  1  0.14603250  0.32891250  0.61282300  1
  O  O13  1  0.85396750  0.32891250  0.11282300  1
  O  O14  1  0.35396750  0.17108750  0.11282300  1
  O  O15  1  0.64603250  0.17108750  0.61282300  1
  O  O16  1  0.15545100  0.00000000  0.56793500  1
  O  O17  1  0.84454900  0.00000000  0.06793500  1
  O  O18  1  0.64603250  0.82891250  0.61282300  1
  O  O19  1  0.35396750  0.82891250  0.11282300  1
  O  O20  1  0.85396750  0.67108750  0.11282300  1
  O  O21  1  0.14603250  0.67108750  0.61282300  1
  O  O22  1  0.65545100  0.50000000  0.56793500  1
  O  O23  1  0.34454900  0.50000000  0.06793500  1
