# generated using pymatgen
data_Na2Mn(SO4)2
_symmetry_space_group_name_H-M   'P 1'
_cell_length_a   10.22567541
_cell_length_b   8.23803900
_cell_length_c   8.96222671
_cell_angle_alpha   90.00000000
_cell_angle_beta   117.30973075
_cell_angle_gamma   90.00000000
_symmetry_Int_Tables_number   1
_chemical_formula_structural   Na2Mn(SO4)2
_chemical_formula_sum   'Na8 Mn4 S8 O32'
_cell_volume   670.82374435
_cell_formula_units_Z   4
loop_
 _symmetry_equiv_pos_site_id
 _symmetry_equiv_pos_as_xyz
  1  'x, y, z'
loop_
 _atom_site_type_symbol
 _atom_site_label
 _atom_site_symmetry_multiplicity
 _atom_site_fract_x
 _atom_site_fract_y
 _atom_site_fract_z
 _atom_site_occupancy
  Na  Na0  1  0.13933600  0.55143600  0.44051300  1
  Na  Na1  1  0.86066400  0.55143600  0.05948700  1
  Na  Na2  1  0.13933600  0.44856400  0.94051300  1
  Na  Na3  1  0.86066400  0.44856400  0.55948700  1
  Na  Na4  1  0.63933600  0.05143600  0.44051300  1
  Na  Na5  1  0.36066400  0.05143600  0.05948700  1
  Na  Na6  1  0.63933600  0.94856400  0.94051300  1
  Na  Na7  1  0.36066400  0.94856400  0.55948700  1
  Mn  Mn8  1  0.00000000  0.92101200  0.75000000  1
  Mn  Mn9  1  0.00000000  0.07898800  0.25000000  1
  Mn  Mn10  1  0.50000000  0.42101200  0.75000000  1
  Mn  Mn11  1  0.50000000  0.57898800  0.25000000  1
  S  S12  1  0.18634650  0.78958050  0.17968200  1
  S  S13  1  0.18634650  0.21041950  0.67968200  1
  S  S14  1  0.81365350  0.78958050  0.32031800  1
  S  S15  1  0.81365350  0.21041950  0.82031800  1
  S  S16  1  0.68634650  0.28958050  0.17968200  1
  S  S17  1  0.68634650  0.71041950  0.67968200  1
  S  S18  1  0.31365350  0.28958050  0.32031800  1
  S  S19  1  0.31365350  0.71041950  0.82031800  1
  O  O20  1  0.34452000  0.37028900  0.18938000  1
  O  O21  1  0.34452000  0.62971100  0.68938000  1
  O  O22  1  0.65548000  0.37028900  0.31062000  1
  O  O23  1  0.65548000  0.62971100  0.81062000  1
  O  O24  1  0.36026050  0.40013150  0.46750900  1
  O  O25  1  0.36026050  0.59986850  0.96750900  1
  O  O26  1  0.63973950  0.40013150  0.03249100  1
  O  O27  1  0.63973950  0.59986850  0.53249100  1
  O  O28  1  0.10623300  0.63249800  0.13344600  1
  O  O29  1  0.10623300  0.36750200  0.63344600  1
  O  O30  1  0.89376700  0.63249800  0.36655400  1
  O  O31  1  0.89376700  0.36750200  0.86655400  1
  O  O32  1  0.15104850  0.26363550  0.24467900  1
  O  O33  1  0.15104850  0.73636450  0.74467900  1
  O  O34  1  0.84895150  0.26363550  0.25532100  1
  O  O35  1  0.84895150  0.73636450  0.75532100  1
  O  O36  1  0.84452000  0.87028900  0.18938000  1
  O  O37  1  0.84452000  0.12971100  0.68938000  1
  O  O38  1  0.15548000  0.87028900  0.31062000  1
  O  O39  1  0.15548000  0.12971100  0.81062000  1
  O  O40  1  0.86026050  0.90013150  0.46750900  1
  O  O41  1  0.86026050  0.09986850  0.96750900  1
  O  O42  1  0.13973950  0.90013150  0.03249100  1
  O  O43  1  0.13973950  0.09986850  0.53249100  1
  O  O44  1  0.60623300  0.13249800  0.13344600  1
  O  O45  1  0.60623300  0.86750200  0.63344600  1
  O  O46  1  0.39376700  0.13249800  0.36655400  1
  O  O47  1  0.39376700  0.86750200  0.86655400  1
  O  O48  1  0.65104850  0.76363550  0.24467900  1
  O  O49  1  0.65104850  0.23636450  0.74467900  1
  O  O50  1  0.34895150  0.76363550  0.25532100  1
  O  O51  1  0.34895150  0.23636450  0.75532100  1
