# generated using pymatgen
data_Li2FeSiO4
_symmetry_space_group_name_H-M   'P 1'
_cell_length_a   4.46831401
_cell_length_b   4.46831401
_cell_length_c   8.61403044
_cell_angle_alpha   90.00000000
_cell_angle_beta   90.00000000
_cell_angle_gamma   90.00000000
_symmetry_Int_Tables_number   1
_chemical_formula_structural   Li2FeSiO4
_chemical_formula_sum   'Li4 Fe2 Si2 O8'
_cell_volume   171.98626795
_cell_formula_units_Z   2
loop_
 _symmetry_equiv_pos_site_id
 _symmetry_equiv_pos_as_xyz
  1  'x, y, z'
loop_
 _atom_site_type_symbol
 _atom_site_label
 _atom_site_symmetry_multiplicity
 _atom_site_fract_x
 _atom_site_fract_y
 _atom_site_fract_z
 _atom_site_occupancy
  Li  Li0  1  0.50000000  0.00000000  0.25000000  1
  Li  Li1  1  0.00000000  0.50000000  0.25000000  1
  Li  Li2  1  0.00000000  0.50000000  0.75000000  1
  Li  Li3  1  0.50000000  0.00000000  0.75000000  1
  Fe  Fe4  1  0.00000000  0.00000000  0.50000000  1
  Fe  Fe5  1  0.50000000  0.50000000  0.00000000  1
  Si  Si6  1  0.50000000  0.50000000  0.50000000  1
  Si  Si7  1  0.00000000  0.00000000  0.00000000  1
  O  O8  1  0.21338950  0.78661050  0.11166725  1
  O  O9  1  0.78661050  0.21338950  0.11166725  1
  O  O10  1  0.28661050  0.28661050  0.38833275  1
  O  O11  1  0.71338950  0.71338950  0.38833275  1
  O  O12  1  0.71338950  0.28661050  0.61166725  1
  O  O13  1  0.28661050  0.71338950  0.61166725  1
  O  O14  1  0.78661050  0.78661050  0.88833275  1
  O  O15  1  0.21338950  0.21338950  0.88833275  1
