# generated using pymatgen
data_Li2Fe(SiO3)2
_symmetry_space_group_name_H-M   'P 1'
_cell_length_a   5.89889262
_cell_length_b   9.64337903
_cell_length_c   9.40814768
_cell_angle_alpha   90.00000000
_cell_angle_beta   91.68654333
_cell_angle_gamma   90.00000000
_symmetry_Int_Tables_number   1
_chemical_formula_structural   Li2Fe(SiO3)2
_chemical_formula_sum   'Li8 Fe4 Si8 O24'
_cell_volume   534.95305991
_cell_formula_units_Z   4
loop_
 _symmetry_equiv_pos_site_id
 _symmetry_equiv_pos_as_xyz
  1  'x, y, z'
loop_
 _atom_site_type_symbol
 _atom_site_label
 _atom_site_symmetry_multiplicity
 _atom_site_fract_x
 _atom_site_fract_y
 _atom_site_fract_z
 _atom_site_occupancy
  Li  Li0  1  0.43386750  0.17019350  0.61834500  1
  Li  Li1  1  0.43386750  0.82980650  0.11834500  1
  Li  Li2  1  0.56613250  0.17019350  0.88165500  1
  Li  Li3  1  0.56613250  0.82980650  0.38165500  1
  Li  Li4  1  0.93386750  0.67019350  0.61834500  1
  Li  Li5  1  0.93386750  0.32980650  0.11834500  1
  Li  Li6  1  0.06613250  0.67019350  0.88165500  1
  Li  Li7  1  0.06613250  0.32980650  0.38165500  1
  Fe  Fe8  1  0.50000000  0.76048000  0.75000000  1
  Fe  Fe9  1  0.50000000  0.23952000  0.25000000  1
  Fe  Fe10  1  0.00000000  0.26048000  0.75000000  1
  Fe  Fe11  1  0.00000000  0.73952000  0.25000000  1
  Si  Si12  1  0.16691100  0.97274300  0.86776000  1
  Si  Si13  1  0.16691100  0.02725700  0.36776000  1
  Si  Si14  1  0.83308900  0.97274300  0.63224000  1
  Si  Si15  1  0.83308900  0.02725700  0.13224000  1
  Si  Si16  1  0.66691100  0.47274300  0.86776000  1
  Si  Si17  1  0.66691100  0.52725700  0.36776000  1
  Si  Si18  1  0.33308900  0.47274300  0.63224000  1
  Si  Si19  1  0.33308900  0.52725700  0.13224000  1
  O  O20  1  0.25845950  0.11768350  0.80118900  1
  O  O21  1  0.25845950  0.88231650  0.30118900  1
  O  O22  1  0.36379800  0.86167800  0.91369200  1
  O  O23  1  0.36379800  0.13832200  0.41369200  1
  O  O24  1  0.50000000  0.38802800  0.75000000  1
  O  O25  1  0.00000000  0.00000000  0.00000000  1
  O  O26  1  0.50000000  0.61197200  0.25000000  1
  O  O27  1  0.50000000  0.50000000  0.50000000  1
  O  O28  1  0.63620200  0.86167800  0.58630800  1
  O  O29  1  0.63620200  0.13832200  0.08630800  1
  O  O30  1  0.74154050  0.11768350  0.69881100  1
  O  O31  1  0.74154050  0.88231650  0.19881100  1
  O  O32  1  0.75845950  0.61768350  0.80118900  1
  O  O33  1  0.75845950  0.38231650  0.30118900  1
  O  O34  1  0.86379800  0.36167800  0.91369200  1
  O  O35  1  0.86379800  0.63832200  0.41369200  1
  O  O36  1  0.00000000  0.88802800  0.75000000  1
  O  O37  1  0.50000000  0.50000000  0.00000000  1
  O  O38  1  0.00000000  0.11197200  0.25000000  1
  O  O39  1  0.00000000  0.00000000  0.50000000  1
  O  O40  1  0.13620200  0.36167800  0.58630800  1
  O  O41  1  0.13620200  0.63832200  0.08630800  1
  O  O42  1  0.24154050  0.61768350  0.69881100  1
  O  O43  1  0.24154050  0.38231650  0.19881100  1
