# generated using pymatgen
data_Ti3Mn(PO4)6
_symmetry_space_group_name_H-M   'P 1'
_cell_length_a   8.60095208
_cell_length_b   8.60095208
_cell_length_c   21.85082354
_cell_angle_alpha   90.00000000
_cell_angle_beta   90.00000000
_cell_angle_gamma   120.00000000
_symmetry_Int_Tables_number   1
_chemical_formula_structural   Ti3Mn(PO4)6
_chemical_formula_sum   'Ti9 Mn3 P18 O72'
_cell_volume   1399.88221965
_cell_formula_units_Z   3
loop_
 _symmetry_equiv_pos_site_id
 _symmetry_equiv_pos_as_xyz
  1  'x, y, z'
loop_
 _atom_site_type_symbol
 _atom_site_label
 _atom_site_symmetry_multiplicity
 _atom_site_fract_x
 _atom_site_fract_y
 _atom_site_fract_z
 _atom_site_occupancy
  Ti  Ti0  1  0.00000000  0.00000000  0.14034000  1
  Ti  Ti1  1  0.33333333  0.66666667  0.02586267  1
  Ti  Ti2  1  0.33333333  0.66666667  0.30679267  1
  Ti  Ti3  1  0.66666667  0.33333333  0.47367333  1
  Ti  Ti4  1  0.00000000  0.00000000  0.35919600  1
  Ti  Ti5  1  0.00000000  0.00000000  0.64012600  1
  Ti  Ti6  1  0.33333333  0.66666667  0.80700667  1
  Ti  Ti7  1  0.66666667  0.33333333  0.69252933  1
  Ti  Ti8  1  0.66666667  0.33333333  0.97345933  1
  Mn  Mn9  1  0.66666667  0.33333333  0.18862733  1
  Mn  Mn10  1  0.33333333  0.66666667  0.52196067  1
  Mn  Mn11  1  0.00000000  0.00000000  0.85529400  1
  P  P12  1  0.66557733  0.61321167  0.08395167  1
  P  P13  1  0.94763433  0.33442267  0.08395167  1
  P  P14  1  0.38678833  0.05236567  0.08395167  1
  P  P15  1  0.28921167  0.28293733  0.24905833  1
  P  P16  1  0.71706267  0.00627433  0.24905833  1
  P  P17  1  0.99372567  0.71078833  0.24905833  1
  P  P18  1  0.33224400  0.94654500  0.41728500  1
  P  P19  1  0.61430100  0.66775600  0.41728500  1
  P  P20  1  0.05345500  0.38569900  0.41728500  1
  P  P21  1  0.95587833  0.61627067  0.58239167  1
  P  P22  1  0.38372933  0.33960767  0.58239167  1
  P  P23  1  0.66039233  0.04412167  0.58239167  1
  P  P24  1  0.99891067  0.27987833  0.75061833  1
  P  P25  1  0.28096767  0.00108933  0.75061833  1
  P  P26  1  0.72012167  0.71903233  0.75061833  1
  P  P27  1  0.62254500  0.94960400  0.91572500  1
  P  P28  1  0.05039600  0.67294100  0.91572500  1
  P  P29  1  0.32705900  0.37745500  0.91572500  1
  O  O30  1  0.96831167  0.79973833  0.30644533  1
  O  O31  1  0.20026167  0.16857333  0.30644533  1
  O  O32  1  0.83177400  0.80063300  0.09146100  1
  O  O33  1  0.83142667  0.03168833  0.30644533  1
  O  O34  1  0.49886167  0.63412633  0.07637833  1
  O  O35  1  0.63295900  0.49919600  0.14194900  1
  O  O36  1  0.96885900  0.16822600  0.09146100  1
  O  O37  1  0.13526467  0.50113833  0.07637833  1
  O  O38  1  0.36587367  0.86473533  0.07637833  1
  O  O39  1  0.17215200  0.19620400  0.19244600  1
  O  O40  1  0.47669633  0.30299267  0.24316867  1
  O  O41  1  0.80379600  0.97594800  0.19244600  1
  O  O42  1  0.86623700  0.36704100  0.14194900  1
  O  O43  1  0.19936700  0.03114100  0.09146100  1
  O  O44  1  0.50080400  0.13376300  0.14194900  1
  O  O45  1  0.31010100  0.47092600  0.25685900  1
  O  O46  1  0.52907400  0.83917500  0.25685900  1
  O  O47  1  0.69700733  0.17370367  0.24316867  1
  O  O48  1  0.02405200  0.82784800  0.19244600  1
  O  O49  1  0.16082500  0.68989900  0.25685900  1
  O  O50  1  0.83411233  0.30652767  0.02662967  1
  O  O51  1  0.82629633  0.52330367  0.24316867  1
  O  O52  1  0.47241533  0.16588767  0.02662967  1
  O  O53  1  0.69347233  0.52758467  0.02662967  1
  O  O54  1  0.63497833  0.13307167  0.63977867  1
  O  O55  1  0.86692833  0.50190667  0.63977867  1
  O  O56  1  0.49844067  0.13396633  0.42479433  1
  O  O57  1  0.49809333  0.36502167  0.63977867  1
  O  O58  1  0.16552833  0.96745967  0.40971167  1
  O  O59  1  0.29962567  0.83252933  0.47528233  1
  O  O60  1  0.63552567  0.50155933  0.42479433  1
  O  O61  1  0.80193133  0.83447167  0.40971167  1
  O  O62  1  0.03254033  0.19806867  0.40971167  1
  O  O63  1  0.83881867  0.52953733  0.52577933  1
  O  O64  1  0.14336300  0.63632600  0.57650200  1
  O  O65  1  0.47046267  0.30928133  0.52577933  1
  O  O66  1  0.53290367  0.70037433  0.47528233  1
  O  O67  1  0.86603367  0.36447433  0.42479433  1
  O  O68  1  0.16747067  0.46709633  0.47528233  1
  O  O69  1  0.97676767  0.80425933  0.59019233  1
  O  O70  1  0.19574067  0.17250833  0.59019233  1
  O  O71  1  0.36367400  0.50703700  0.57650200  1
  O  O72  1  0.69071867  0.16118133  0.52577933  1
  O  O73  1  0.82749167  0.02323233  0.59019233  1
  O  O74  1  0.50077900  0.63986100  0.35996300  1
  O  O75  1  0.49296300  0.85663700  0.57650200  1
  O  O76  1  0.13908200  0.49922100  0.35996300  1
  O  O77  1  0.36013900  0.86091800  0.35996300  1
  O  O78  1  0.30164500  0.46640500  0.97311200  1
  O  O79  1  0.53359500  0.83524000  0.97311200  1
  O  O80  1  0.16510733  0.46729967  0.75812767  1
  O  O81  1  0.16476000  0.69835500  0.97311200  1
  O  O82  1  0.83219500  0.30079300  0.74304500  1
  O  O83  1  0.96629233  0.16586267  0.80861567  1
  O  O84  1  0.30219233  0.83489267  0.75812767  1
  O  O85  1  0.46859800  0.16780500  0.74304500  1
  O  O86  1  0.69920700  0.53140200  0.74304500  1
  O  O87  1  0.50548533  0.86287067  0.85911267  1
  O  O88  1  0.81002967  0.96965933  0.90983533  1
  O  O89  1  0.13712933  0.64261467  0.85911267  1
  O  O90  1  0.19957033  0.03370767  0.80861567  1
  O  O91  1  0.53270033  0.69780767  0.75812767  1
  O  O92  1  0.83413733  0.80042967  0.80861567  1
  O  O93  1  0.64343433  0.13759267  0.92352567  1
  O  O94  1  0.86240733  0.50584167  0.92352567  1
  O  O95  1  0.03034067  0.84037033  0.90983533  1
  O  O96  1  0.35738533  0.49451467  0.85911267  1
  O  O97  1  0.49415833  0.35656567  0.92352567  1
  O  O98  1  0.16744567  0.97319433  0.69329633  1
  O  O99  1  0.15962967  0.18997033  0.90983533  1
  O  O100  1  0.80574867  0.83255433  0.69329633  1
  O  O101  1  0.02680567  0.19425133  0.69329633  1
