# generated using pymatgen
data_V3Fe2Cu(PO4)6
_symmetry_space_group_name_H-M   'P 1'
_cell_length_a   8.64036059
_cell_length_b   8.64036059
_cell_length_c   20.52916693
_cell_angle_alpha   90.00000000
_cell_angle_beta   90.00000000
_cell_angle_gamma   120.00000000
_symmetry_Int_Tables_number   1
_chemical_formula_structural   V3Fe2Cu(PO4)6
_chemical_formula_sum   'V9 Fe6 Cu3 P18 O72'
_cell_volume   1327.28960364
_cell_formula_units_Z   3
loop_
 _symmetry_equiv_pos_site_id
 _symmetry_equiv_pos_as_xyz
  1  'x, y, z'
loop_
 _atom_site_type_symbol
 _atom_site_label
 _atom_site_symmetry_multiplicity
 _atom_site_fract_x
 _atom_site_fract_y
 _atom_site_fract_z
 _atom_site_occupancy
  V  V0  1  0.33333333  0.66666667  0.31011200  1
  V  V1  1  0.33333333  0.66666667  0.52532200  1
  V  V2  1  0.33333333  0.66666667  0.02343700  1
  V  V3  1  0.00000000  0.00000000  0.64344533  1
  V  V4  1  0.00000000  0.00000000  0.85865533  1
  V  V5  1  0.00000000  0.00000000  0.35677033  1
  V  V6  1  0.66666667  0.33333333  0.97677867  1
  V  V7  1  0.66666667  0.33333333  0.19198867  1
  V  V8  1  0.66666667  0.33333333  0.69010367  1
  Fe  Fe9  1  0.33333333  0.66666667  0.66989433  1
  Fe  Fe10  1  0.33333333  0.66666667  0.16768633  1
  Fe  Fe11  1  0.00000000  0.00000000  0.00322767  1
  Fe  Fe12  1  0.00000000  0.00000000  0.50101967  1
  Fe  Fe13  1  0.66666667  0.33333333  0.33656100  1
  Fe  Fe14  1  0.66666667  0.33333333  0.83435300  1
  Cu  Cu15  1  0.33333333  0.66666667  0.81105967  1
  Cu  Cu16  1  0.00000000  0.00000000  0.14439300  1
  Cu  Cu17  1  0.66666667  0.33333333  0.47772633  1
  P  P18  1  0.99926567  0.70654133  0.24875433  1
  P  P19  1  0.70727567  0.00073433  0.24875433  1
  P  P20  1  0.29345867  0.29272433  0.24875433  1
  P  P21  1  0.37421067  0.04086433  0.08308033  1
  P  P22  1  0.95913567  0.33334633  0.08308033  1
  P  P23  1  0.66665367  0.62578933  0.08308033  1
  P  P24  1  0.66593233  0.03987467  0.58208767  1
  P  P25  1  0.37394233  0.33406767  0.58208767  1
  P  P26  1  0.96012533  0.62605767  0.58208767  1
  P  P27  1  0.04087733  0.37419767  0.41641367  1
  P  P28  1  0.62580233  0.66667967  0.41641367  1
  P  P29  1  0.33332033  0.95912267  0.41641367  1
  P  P30  1  0.33259900  0.37320800  0.91542100  1
  P  P31  1  0.04060900  0.66740100  0.91542100  1
  P  P32  1  0.62679200  0.95939100  0.91542100  1
  P  P33  1  0.70754400  0.70753100  0.74974700  1
  P  P34  1  0.29246900  0.00001300  0.74974700  1
  P  P35  1  0.99998700  0.29245600  0.74974700  1
  O  O36  1  0.14244667  0.66744933  0.97820133  1
  O  O37  1  0.52500267  0.85755333  0.97820133  1
  O  O38  1  0.33255067  0.47499733  0.97820133  1
  O  O39  1  0.83109733  0.51548767  0.25749667  1
  O  O40  1  0.00306233  0.79718667  0.18613067  1
  O  O41  1  0.16573167  0.67844233  0.24634733  1
  O  O42  1  0.68439033  0.16890267  0.25749667  1
  O  O43  1  0.51271067  0.83426833  0.24634733  1
  O  O44  1  0.47495133  0.14229267  0.14565767  1
  O  O45  1  0.32155767  0.48728933  0.24634733  1
  O  O46  1  0.19159533  0.02305967  0.07312467  1
  O  O47  1  0.85770733  0.33265867  0.14565767  1
  O  O48  1  0.79412433  0.99693767  0.18613067  1
  O  O49  1  0.48451233  0.31560967  0.25749667  1
  O  O50  1  0.35671700  0.85160200  0.09001000  1
  O  O51  1  0.20281333  0.20587567  0.18613067  1
  O  O52  1  0.14839800  0.50511500  0.09001000  1
  O  O53  1  0.97694033  0.16853567  0.07312467  1
  O  O54  1  0.49488500  0.64328300  0.09001000  1
  O  O55  1  0.66734133  0.52504867  0.14565767  1
  O  O56  1  0.83146433  0.80840467  0.07312467  1
  O  O57  1  0.31823633  0.84764467  0.35535967  1
  O  O58  1  0.15235533  0.47059167  0.35535967  1
  O  O59  1  0.52940833  0.68176367  0.35535967  1
  O  O60  1  0.80911333  0.00078267  0.31153467  1
  O  O61  1  0.19166933  0.19088667  0.31153467  1
  O  O62  1  0.99921733  0.80833067  0.31153467  1
  O  O63  1  0.49776400  0.84882100  0.59083000  1
  O  O64  1  0.66972900  0.13052000  0.51946400  1
  O  O65  1  0.83239833  0.01177567  0.57968067  1
  O  O66  1  0.35105700  0.50223600  0.59083000  1
  O  O67  1  0.17937733  0.16760167  0.57968067  1
  O  O68  1  0.14161800  0.47562600  0.47899100  1
  O  O69  1  0.98822433  0.82062267  0.57968067  1
  O  O70  1  0.85826200  0.35639300  0.40645800  1
  O  O71  1  0.52437400  0.66599200  0.47899100  1
  O  O72  1  0.46079100  0.33027100  0.51946400  1
  O  O73  1  0.15117900  0.64894300  0.59083000  1
  O  O74  1  0.02338367  0.18493533  0.42334333  1
  O  O75  1  0.86948000  0.53920900  0.51946400  1
  O  O76  1  0.81506467  0.83844833  0.42334333  1
  O  O77  1  0.64360700  0.50186900  0.40645800  1
  O  O78  1  0.16155167  0.97661633  0.42334333  1
  O  O79  1  0.33400800  0.85838200  0.47899100  1
  O  O80  1  0.49813100  0.14173800  0.40645800  1
  O  O81  1  0.98490300  0.18097800  0.68869300  1
  O  O82  1  0.81902200  0.80392500  0.68869300  1
  O  O83  1  0.19607500  0.01509700  0.68869300  1
  O  O84  1  0.47578000  0.33411600  0.64486800  1
  O  O85  1  0.85833600  0.52422000  0.64486800  1
  O  O86  1  0.66588400  0.14166400  0.64486800  1
  O  O87  1  0.16443067  0.18215433  0.92416333  1
  O  O88  1  0.33639567  0.46385333  0.85279733  1
  O  O89  1  0.49906500  0.34510900  0.91301400  1
  O  O90  1  0.01772367  0.83556933  0.92416333  1
  O  O91  1  0.84604400  0.50093500  0.91301400  1
  O  O92  1  0.80828467  0.80895933  0.81232433  1
  O  O93  1  0.65489100  0.15395600  0.91301400  1
  O  O94  1  0.52492867  0.68972633  0.73979133  1
  O  O95  1  0.19104067  0.99932533  0.81232433  1
  O  O96  1  0.12745767  0.66360433  0.85279733  1
  O  O97  1  0.81784567  0.98227633  0.92416333  1
  O  O98  1  0.69005033  0.51826867  0.75667667  1
  O  O99  1  0.53614667  0.87254233  0.85279733  1
  O  O100  1  0.48173133  0.17178167  0.75667667  1
  O  O101  1  0.31027367  0.83520233  0.73979133  1
  O  O102  1  0.82821833  0.30994967  0.75667667  1
  O  O103  1  0.00067467  0.19171533  0.81232433  1
  O  O104  1  0.16479767  0.47507133  0.73979133  1
  O  O105  1  0.65156967  0.51431133  0.02202633  1
  O  O106  1  0.48568867  0.13725833  0.02202633  1
  O  O107  1  0.86274167  0.34843033  0.02202633  1
