# generated using pymatgen
data_Ti7O8
_symmetry_space_group_name_H-M   'P 1'
_cell_length_a   9.55369200
_cell_length_b   4.10337200
_cell_length_c   8.94130852
_cell_angle_alpha   90.00000000
_cell_angle_beta   109.14744753
_cell_angle_gamma   90.00000000
_symmetry_Int_Tables_number   1
_chemical_formula_structural   Ti7O8
_chemical_formula_sum   'Ti14 O16'
_cell_volume   331.12870544
_cell_formula_units_Z   2
loop_
 _symmetry_equiv_pos_site_id
 _symmetry_equiv_pos_as_xyz
  1  'x, y, z'
loop_
 _atom_site_type_symbol
 _atom_site_label
 _atom_site_symmetry_multiplicity
 _atom_site_fract_x
 _atom_site_fract_y
 _atom_site_fract_z
 _atom_site_occupancy
  Ti  Ti0  1  0.17434100  0.50000000  0.88594800  1
  Ti  Ti1  1  0.14824800  0.50000000  0.54487100  1
  Ti  Ti2  1  0.01719400  0.00000000  0.66510000  1
  Ti  Ti3  1  0.66148600  0.00000000  0.22476300  1
  Ti  Ti4  1  0.33165400  0.00000000  0.80263600  1
  Ti  Ti5  1  0.84043500  0.50000000  0.10020100  1
  Ti  Ti6  1  0.84815500  0.50000000  0.43053800  1
  Ti  Ti7  1  0.67434100  0.00000000  0.88594800  1
  Ti  Ti8  1  0.64824800  0.00000000  0.54487100  1
  Ti  Ti9  1  0.51719400  0.50000000  0.66510000  1
  Ti  Ti10  1  0.16148600  0.50000000  0.22476300  1
  Ti  Ti11  1  0.83165400  0.50000000  0.80263600  1
  Ti  Ti12  1  0.34043500  0.00000000  0.10020100  1
  Ti  Ti13  1  0.34815500  0.00000000  0.43053800  1
  O  O14  1  0.33211200  0.50000000  0.76348400  1
  O  O15  1  0.81287800  0.00000000  0.11259500  1
  O  O16  1  0.82854800  0.00000000  0.44871000  1
  O  O17  1  0.18385900  0.00000000  0.55971500  1
  O  O18  1  0.15602500  0.00000000  0.89874200  1
  O  O19  1  0.00034100  0.50000000  0.32316100  1
  O  O20  1  0.50723200  0.00000000  0.00793100  1
  O  O21  1  0.99083300  0.50000000  0.67604800  1
  O  O22  1  0.83211200  0.00000000  0.76348400  1
  O  O23  1  0.31287800  0.50000000  0.11259500  1
  O  O24  1  0.32854800  0.50000000  0.44871000  1
  O  O25  1  0.68385900  0.50000000  0.55971500  1
  O  O26  1  0.65602500  0.50000000  0.89874200  1
  O  O27  1  0.50034100  0.00000000  0.32316100  1
  O  O28  1  0.00723200  0.50000000  0.00793100  1
  O  O29  1  0.49083300  0.00000000  0.67604800  1
