# generated using pymatgen
data_Li4V2Ni3Sb3O16
_symmetry_space_group_name_H-M   'P 1'
_cell_length_a   10.53436000
_cell_length_b   6.10273200
_cell_length_c   9.73503592
_cell_angle_alpha   90.00000000
_cell_angle_beta   91.50470690
_cell_angle_gamma   90.00000000
_symmetry_Int_Tables_number   1
_chemical_formula_structural   Li4V2Ni3Sb3O16
_chemical_formula_sum   'Li8 V4 Ni6 Sb6 O32'
_cell_volume   625.63383741
_cell_formula_units_Z   2
loop_
 _symmetry_equiv_pos_site_id
 _symmetry_equiv_pos_as_xyz
  1  'x, y, z'
loop_
 _atom_site_type_symbol
 _atom_site_label
 _atom_site_symmetry_multiplicity
 _atom_site_fract_x
 _atom_site_fract_y
 _atom_site_fract_z
 _atom_site_occupancy
  Li  Li0  1  0.32039500  0.00000000  0.11271200  1
  Li  Li1  1  0.02108400  0.00000000  0.01487000  1
  Li  Li2  1  0.00720900  0.00000000  0.49562700  1
  Li  Li3  1  0.67150900  0.00000000  0.59551600  1
  Li  Li4  1  0.82039500  0.50000000  0.11271200  1
  Li  Li5  1  0.52108400  0.50000000  0.01487000  1
  Li  Li6  1  0.50720900  0.50000000  0.49562700  1
  Li  Li7  1  0.17150900  0.50000000  0.59551600  1
  V  V8  1  0.32195000  0.00000000  0.50171900  1
  V  V9  1  0.63786600  0.00000000  0.03512800  1
  V  V10  1  0.82195000  0.50000000  0.50171900  1
  V  V11  1  0.13786600  0.50000000  0.03512800  1
  Ni  Ni12  1  0.16890000  0.00000000  0.78427600  1
  Ni  Ni13  1  0.57905600  0.25620200  0.29336200  1
  Ni  Ni14  1  0.57905600  0.74379800  0.29336200  1
  Ni  Ni15  1  0.66890000  0.50000000  0.78427600  1
  Ni  Ni16  1  0.07905600  0.75620200  0.29336200  1
  Ni  Ni17  1  0.07905600  0.24379800  0.29336200  1
  Sb  Sb18  1  0.41451350  0.25052950  0.78622200  1
  Sb  Sb19  1  0.41451350  0.74947050  0.78622200  1
  Sb  Sb20  1  0.82503300  0.00000000  0.28678000  1
  Sb  Sb21  1  0.91451350  0.75052950  0.78622200  1
  Sb  Sb22  1  0.91451350  0.24947050  0.78622200  1
  Sb  Sb23  1  0.32503300  0.50000000  0.28678000  1
  O  O24  1  0.40813650  0.26439050  0.40045900  1
  O  O25  1  0.48399900  0.00000000  0.66502800  1
  O  O26  1  0.33681800  0.00000000  0.89852400  1
  O  O27  1  0.99656700  0.00000000  0.68462000  1
  O  O28  1  0.98944400  0.00000000  0.19306600  1
  O  O29  1  0.40813650  0.73560950  0.40045900  1
  O  O30  1  0.26436450  0.22851250  0.66230100  1
  O  O31  1  0.26436450  0.77148750  0.66230100  1
  O  O32  1  0.84317300  0.00000000  0.89867300  1
  O  O33  1  0.16373300  0.00000000  0.40577700  1
  O  O34  1  0.73613550  0.21501150  0.14816500  1
  O  O35  1  0.73613550  0.78498850  0.14816500  1
  O  O36  1  0.66585000  0.00000000  0.39171700  1
  O  O37  1  0.57421300  0.25281600  0.90187700  1
  O  O38  1  0.50938700  0.00000000  0.14100900  1
  O  O39  1  0.57421300  0.74718400  0.90187700  1
  O  O40  1  0.90813650  0.76439050  0.40045900  1
  O  O41  1  0.98399900  0.50000000  0.66502800  1
  O  O42  1  0.83681800  0.50000000  0.89852400  1
  O  O43  1  0.49656700  0.50000000  0.68462000  1
  O  O44  1  0.48944400  0.50000000  0.19306600  1
  O  O45  1  0.90813650  0.23560950  0.40045900  1
  O  O46  1  0.76436450  0.72851250  0.66230100  1
  O  O47  1  0.76436450  0.27148750  0.66230100  1
  O  O48  1  0.34317300  0.50000000  0.89867300  1
  O  O49  1  0.66373300  0.50000000  0.40577700  1
  O  O50  1  0.23613550  0.71501150  0.14816500  1
  O  O51  1  0.23613550  0.28498850  0.14816500  1
  O  O52  1  0.16585000  0.50000000  0.39171700  1
  O  O53  1  0.07421300  0.75281600  0.90187700  1
  O  O54  1  0.00938700  0.50000000  0.14100900  1
  O  O55  1  0.07421300  0.24718400  0.90187700  1
