# generated using pymatgen
data_Ta2TiO6
_symmetry_space_group_name_H-M   'P 1'
_cell_length_a   9.14465400
_cell_length_b   6.84769600
_cell_length_c   7.47159990
_cell_angle_alpha   90.00000000
_cell_angle_beta   114.34594294
_cell_angle_gamma   90.00000000
_symmetry_Int_Tables_number   1
_chemical_formula_structural   Ta2TiO6
_chemical_formula_sum   'Ta8 Ti4 O24'
_cell_volume   426.26388410
_cell_formula_units_Z   4
loop_
 _symmetry_equiv_pos_site_id
 _symmetry_equiv_pos_as_xyz
  1  'x, y, z'
loop_
 _atom_site_type_symbol
 _atom_site_label
 _atom_site_symmetry_multiplicity
 _atom_site_fract_x
 _atom_site_fract_y
 _atom_site_fract_z
 _atom_site_occupancy
  Ta  Ta0  1  0.32880500  0.50000000  0.32854300  1
  Ta  Ta1  1  0.32141800  0.50000000  0.82680800  1
  Ta  Ta2  1  0.67119500  0.50000000  0.67145700  1
  Ta  Ta3  1  0.67858200  0.50000000  0.17319200  1
  Ta  Ta4  1  0.82880500  0.00000000  0.32854300  1
  Ta  Ta5  1  0.82141800  0.00000000  0.82680800  1
  Ta  Ta6  1  0.17119500  0.00000000  0.67145700  1
  Ta  Ta7  1  0.17858200  0.00000000  0.17319200  1
  Ti  Ti8  1  0.00000000  0.50000000  0.50000000  1
  Ti  Ti9  1  0.00000000  0.50000000  0.00000000  1
  Ti  Ti10  1  0.50000000  0.00000000  0.50000000  1
  Ti  Ti11  1  0.50000000  0.00000000  0.00000000  1
  O  O12  1  0.82845550  0.70368550  0.82846900  1
  O  O13  1  0.00000000  0.19356500  0.50000000  1
  O  O14  1  0.89826100  0.50000000  0.19489800  1
  O  O15  1  0.23883700  0.50000000  0.53355500  1
  O  O16  1  0.56565900  0.50000000  0.87077800  1
  O  O17  1  0.76116300  0.50000000  0.46644500  1
  O  O18  1  0.10173900  0.50000000  0.80510200  1
  O  O19  1  0.43434100  0.50000000  0.12922200  1
  O  O20  1  0.17154450  0.29631450  0.17153100  1
  O  O21  1  0.00000000  0.80643500  0.50000000  1
  O  O22  1  0.82845550  0.29631450  0.82846900  1
  O  O23  1  0.17154450  0.70368550  0.17153100  1
  O  O24  1  0.32845550  0.20368550  0.82846900  1
  O  O25  1  0.50000000  0.69356500  0.50000000  1
  O  O26  1  0.39826100  0.00000000  0.19489800  1
  O  O27  1  0.73883700  0.00000000  0.53355500  1
  O  O28  1  0.06565900  0.00000000  0.87077800  1
  O  O29  1  0.26116300  0.00000000  0.46644500  1
  O  O30  1  0.60173900  0.00000000  0.80510200  1
  O  O31  1  0.93434100  0.00000000  0.12922200  1
  O  O32  1  0.67154450  0.79631450  0.17153100  1
  O  O33  1  0.50000000  0.30643500  0.50000000  1
  O  O34  1  0.32845550  0.79631450  0.82846900  1
  O  O35  1  0.67154450  0.20368550  0.17153100  1
