# generated using pymatgen
data_LiMnPO4
_symmetry_space_group_name_H-M   'P 1'
_cell_length_a   4.91749900
_cell_length_b   9.65291873
_cell_length_c   6.47963698
_cell_angle_alpha   90.00000000
_cell_angle_beta   90.00000000
_cell_angle_gamma   90.00000000
_symmetry_Int_Tables_number   1
_chemical_formula_structural   LiMnPO4
_chemical_formula_sum   'Li4 Mn4 P4 O16'
_cell_volume   307.57682248
_cell_formula_units_Z   4
loop_
 _symmetry_equiv_pos_site_id
 _symmetry_equiv_pos_as_xyz
  1  'x, y, z'
loop_
 _atom_site_type_symbol
 _atom_site_label
 _atom_site_symmetry_multiplicity
 _atom_site_fract_x
 _atom_site_fract_y
 _atom_site_fract_z
 _atom_site_occupancy
  Li  Li0  1  0.49150950  0.82486850  0.25000000  1
  Li  Li1  1  0.99150950  0.67513150  0.75000000  1
  Li  Li2  1  0.99150950  0.32486850  0.25000000  1
  Li  Li3  1  0.49150950  0.17513150  0.75000000  1
  Mn  Mn4  1  0.51044400  0.50000000  0.50000000  1
  Mn  Mn5  1  0.01044400  0.00000000  0.00000000  1
  Mn  Mn6  1  0.01044400  0.00000000  0.50000000  1
  Mn  Mn7  1  0.51044400  0.50000000  0.00000000  1
  P  P8  1  0.49576050  0.81331550  0.75000000  1
  P  P9  1  0.99576050  0.68668450  0.25000000  1
  P  P10  1  0.99576050  0.31331550  0.75000000  1
  P  P11  1  0.49576050  0.18668450  0.25000000  1
  O  O12  1  0.95143700  0.85069200  0.25000000  1
  O  O13  1  0.45143700  0.64930800  0.75000000  1
  O  O14  1  0.80262850  0.85898750  0.75000000  1
  O  O15  1  0.30262850  0.64101250  0.25000000  1
  O  O16  1  0.36125700  0.86706500  0.94707150  1
  O  O17  1  0.36125700  0.86706500  0.55292850  1
  O  O18  1  0.86125700  0.63293500  0.44707150  1
  O  O19  1  0.86125700  0.63293500  0.05292850  1
  O  O20  1  0.45143700  0.35069200  0.25000000  1
  O  O21  1  0.95143700  0.14930800  0.75000000  1
  O  O22  1  0.30262850  0.35898750  0.75000000  1
  O  O23  1  0.80262850  0.14101250  0.25000000  1
  O  O24  1  0.86125700  0.36706500  0.94707150  1
  O  O25  1  0.86125700  0.36706500  0.55292850  1
  O  O26  1  0.36125700  0.13293500  0.44707150  1
  O  O27  1  0.36125700  0.13293500  0.05292850  1
