# generated using pymatgen
data_Mn(CoO2)4
_symmetry_space_group_name_H-M   'P 1'
_cell_length_a   9.97169800
_cell_length_b   5.75268400
_cell_length_c   5.97888574
_cell_angle_alpha   90.00000000
_cell_angle_beta   125.55685536
_cell_angle_gamma   90.00000000
_symmetry_Int_Tables_number   1
_chemical_formula_structural   Mn(CoO2)4
_chemical_formula_sum   'Mn2 Co8 O16'
_cell_volume   279.02184233
_cell_formula_units_Z   2
loop_
 _symmetry_equiv_pos_site_id
 _symmetry_equiv_pos_as_xyz
  1  'x, y, z'
loop_
 _atom_site_type_symbol
 _atom_site_label
 _atom_site_symmetry_multiplicity
 _atom_site_fract_x
 _atom_site_fract_y
 _atom_site_fract_z
 _atom_site_occupancy
  Mn  Mn0  1  0.00000000  0.50000000  0.00000000  1
  Mn  Mn1  1  0.50000000  0.00000000  0.00000000  1
  Co  Co2  1  0.50000000  0.00000000  0.50000000  1
  Co  Co3  1  0.00000000  0.00000000  0.00000000  1
  Co  Co4  1  0.75000000  0.75000000  0.00000000  1
  Co  Co5  1  0.75000000  0.25000000  0.00000000  1
  Co  Co6  1  0.00000000  0.50000000  0.50000000  1
  Co  Co7  1  0.50000000  0.50000000  0.00000000  1
  Co  Co8  1  0.25000000  0.25000000  0.00000000  1
  Co  Co9  1  0.25000000  0.75000000  0.00000000  1
  O  O10  1  0.23750200  0.50000000  0.19605300  1
  O  O11  1  0.48563800  0.76783000  0.21474300  1
  O  O12  1  0.48563800  0.23217000  0.21474300  1
  O  O13  1  0.25148000  0.00000000  0.21100800  1
  O  O14  1  0.74852000  0.00000000  0.78899200  1
  O  O15  1  0.51436200  0.76783000  0.78525700  1
  O  O16  1  0.51436200  0.23217000  0.78525700  1
  O  O17  1  0.76249800  0.50000000  0.80394700  1
  O  O18  1  0.73750200  0.00000000  0.19605300  1
  O  O19  1  0.98563800  0.26783000  0.21474300  1
  O  O20  1  0.98563800  0.73217000  0.21474300  1
  O  O21  1  0.75148000  0.50000000  0.21100800  1
  O  O22  1  0.24852000  0.50000000  0.78899200  1
  O  O23  1  0.01436200  0.26783000  0.78525700  1
  O  O24  1  0.01436200  0.73217000  0.78525700  1
  O  O25  1  0.26249800  0.00000000  0.80394700  1
