# generated using pymatgen
data_Li5NiO3F2
_symmetry_space_group_name_H-M   'P 1'
_cell_length_a   9.36737000
_cell_length_b   3.92971400
_cell_length_c   5.86265591
_cell_angle_alpha   90.00000000
_cell_angle_beta   108.86647890
_cell_angle_gamma   90.00000000
_symmetry_Int_Tables_number   1
_chemical_formula_structural   Li5NiO3F2
_chemical_formula_sum   'Li10 Ni2 O6 F4'
_cell_volume   204.21623064
_cell_formula_units_Z   2
loop_
 _symmetry_equiv_pos_site_id
 _symmetry_equiv_pos_as_xyz
  1  'x, y, z'
loop_
 _atom_site_type_symbol
 _atom_site_label
 _atom_site_symmetry_multiplicity
 _atom_site_fract_x
 _atom_site_fract_y
 _atom_site_fract_z
 _atom_site_occupancy
  Li  Li0  1  0.17420300  0.50000000  0.37489800  1
  Li  Li1  1  0.19374300  0.50000000  0.80232000  1
  Li  Li2  1  0.30625700  0.00000000  0.19768000  1
  Li  Li3  1  0.32579700  0.00000000  0.62510200  1
  Li  Li4  1  0.00000000  0.00000000  0.00000000  1
  Li  Li5  1  0.67420300  0.00000000  0.37489800  1
  Li  Li6  1  0.69374300  0.00000000  0.80232000  1
  Li  Li7  1  0.80625700  0.50000000  0.19768000  1
  Li  Li8  1  0.82579700  0.50000000  0.62510200  1
  Li  Li9  1  0.50000000  0.50000000  0.00000000  1
  Ni  Ni10  1  0.00000000  0.00000000  0.50000000  1
  Ni  Ni11  1  0.50000000  0.50000000  0.50000000  1
  O  O12  1  0.13790200  0.00000000  0.32330500  1
  O  O13  1  0.36209800  0.50000000  0.67669500  1
  O  O14  1  0.00000000  0.50000000  0.50000000  1
  O  O15  1  0.63790200  0.50000000  0.32330500  1
  O  O16  1  0.86209800  0.00000000  0.67669500  1
  O  O17  1  0.50000000  0.00000000  0.50000000  1
  F  F18  1  0.17725600  0.00000000  0.84556300  1
  F  F19  1  0.32274400  0.50000000  0.15443700  1
  F  F20  1  0.67725600  0.50000000  0.84556300  1
  F  F21  1  0.82274400  0.00000000  0.15443700  1
