# generated using pymatgen
data_LiMnOF2
_symmetry_space_group_name_H-M   'P 1'
_cell_length_a   9.70990530
_cell_length_b   8.94574332
_cell_length_c   5.32091288
_cell_angle_alpha   90.00000000
_cell_angle_beta   98.64859235
_cell_angle_gamma   90.00000000
_symmetry_Int_Tables_number   1
_chemical_formula_structural   LiMnOF2
_chemical_formula_sum   'Li8 Mn8 O8 F16'
_cell_volume   456.93140816
_cell_formula_units_Z   8
loop_
 _symmetry_equiv_pos_site_id
 _symmetry_equiv_pos_as_xyz
  1  'x, y, z'
loop_
 _atom_site_type_symbol
 _atom_site_label
 _atom_site_symmetry_multiplicity
 _atom_site_fract_x
 _atom_site_fract_y
 _atom_site_fract_z
 _atom_site_occupancy
  Li  Li0  1  0.19334300  0.58643200  0.82978900  1
  Li  Li1  1  0.19334300  0.41356800  0.32978900  1
  Li  Li2  1  0.80665700  0.58643200  0.67021100  1
  Li  Li3  1  0.80665700  0.41356800  0.17021100  1
  Li  Li4  1  0.69334300  0.08643200  0.82978900  1
  Li  Li5  1  0.69334300  0.91356800  0.32978900  1
  Li  Li6  1  0.30665700  0.08643200  0.67021100  1
  Li  Li7  1  0.30665700  0.91356800  0.17021100  1
  Mn  Mn8  1  0.00000000  0.91097050  0.75000000  1
  Mn  Mn9  1  0.00000000  0.74308550  0.25000000  1
  Mn  Mn10  1  0.00000000  0.25691450  0.75000000  1
  Mn  Mn11  1  0.00000000  0.08902950  0.25000000  1
  Mn  Mn12  1  0.50000000  0.41097050  0.75000000  1
  Mn  Mn13  1  0.50000000  0.24308550  0.25000000  1
  Mn  Mn14  1  0.50000000  0.75691450  0.75000000  1
  Mn  Mn15  1  0.50000000  0.58902950  0.25000000  1
  O  O16  1  0.40247800  0.59670500  0.90148600  1
  O  O17  1  0.40247800  0.40329500  0.40148600  1
  O  O18  1  0.59752200  0.59670500  0.59851400  1
  O  O19  1  0.59752200  0.40329500  0.09851400  1
  O  O20  1  0.90247800  0.09670500  0.90148600  1
  O  O21  1  0.90247800  0.90329500  0.40148600  1
  O  O22  1  0.09752200  0.09670500  0.59851400  1
  O  O23  1  0.09752200  0.90329500  0.09851400  1
  F  F24  1  0.12115250  0.74721150  0.62719800  1
  F  F25  1  0.12150650  0.58929050  0.14359500  1
  F  F26  1  0.87884750  0.74721150  0.87280200  1
  F  F27  1  0.12150650  0.41070950  0.64359500  1
  F  F28  1  0.87849350  0.58929050  0.35640500  1
  F  F29  1  0.12115250  0.25278850  0.12719800  1
  F  F30  1  0.87849350  0.41070950  0.85640500  1
  F  F31  1  0.87884750  0.25278850  0.37280200  1
  F  F32  1  0.62115250  0.24721150  0.62719800  1
  F  F33  1  0.62150650  0.08929050  0.14359500  1
  F  F34  1  0.37884750  0.24721150  0.87280200  1
  F  F35  1  0.62150650  0.91070950  0.64359500  1
  F  F36  1  0.37849350  0.08929050  0.35640500  1
  F  F37  1  0.62115250  0.75278850  0.12719800  1
  F  F38  1  0.37849350  0.91070950  0.85640500  1
  F  F39  1  0.37884750  0.75278850  0.37280200  1
