# generated using pymatgen
data_Li2VF5
_symmetry_space_group_name_H-M   'P 1'
_cell_length_a   12.54608000
_cell_length_b   5.02093600
_cell_length_c   5.58930383
_cell_angle_alpha   90.00000000
_cell_angle_beta   91.80808920
_cell_angle_gamma   90.00000000
_symmetry_Int_Tables_number   1
_chemical_formula_structural   Li2VF5
_chemical_formula_sum   'Li8 V4 F20'
_cell_volume   351.91207897
_cell_formula_units_Z   4
loop_
 _symmetry_equiv_pos_site_id
 _symmetry_equiv_pos_as_xyz
  1  'x, y, z'
loop_
 _atom_site_type_symbol
 _atom_site_label
 _atom_site_symmetry_multiplicity
 _atom_site_fract_x
 _atom_site_fract_y
 _atom_site_fract_z
 _atom_site_occupancy
  Li  Li0  1  0.95996600  0.23722000  0.98120500  1
  Li  Li1  1  0.54003400  0.73722000  0.51879500  1
  Li  Li2  1  0.95996600  0.76278000  0.48120500  1
  Li  Li3  1  0.54003400  0.26278000  0.01879500  1
  Li  Li4  1  0.45996600  0.73722000  0.98120500  1
  Li  Li5  1  0.04003400  0.23722000  0.51879500  1
  Li  Li6  1  0.45996600  0.26278000  0.48120500  1
  Li  Li7  1  0.04003400  0.76278000  0.01879500  1
  V  V8  1  0.75000000  0.25000000  0.50000000  1
  V  V9  1  0.75000000  0.75000000  0.00000000  1
  V  V10  1  0.25000000  0.75000000  0.50000000  1
  V  V11  1  0.25000000  0.25000000  0.00000000  1
  F  F12  1  0.00000000  0.02494200  0.25000000  1
  F  F13  1  0.89170800  0.40551600  0.55443600  1
  F  F14  1  0.70982700  0.43510600  0.81151700  1
  F  F15  1  0.70982700  0.56489400  0.31151700  1
  F  F16  1  0.89170800  0.59448400  0.05443600  1
  F  F17  1  0.60829200  0.90551600  0.94556400  1
  F  F18  1  0.79017300  0.93510600  0.68848300  1
  F  F19  1  0.00000000  0.97505800  0.75000000  1
  F  F20  1  0.79017300  0.06489400  0.18848300  1
  F  F21  1  0.60829200  0.09448400  0.44556400  1
  F  F22  1  0.50000000  0.52494200  0.25000000  1
  F  F23  1  0.39170800  0.90551600  0.55443600  1
  F  F24  1  0.20982700  0.93510600  0.81151700  1
  F  F25  1  0.20982700  0.06489400  0.31151700  1
  F  F26  1  0.39170800  0.09448400  0.05443600  1
  F  F27  1  0.10829200  0.40551600  0.94556400  1
  F  F28  1  0.29017300  0.43510600  0.68848300  1
  F  F29  1  0.50000000  0.47505800  0.75000000  1
  F  F30  1  0.29017300  0.56489400  0.18848300  1
  F  F31  1  0.10829200  0.59448400  0.44556400  1
