# generated using pymatgen
data_Ba6Ti7Nb9O42
_symmetry_space_group_name_H-M   'P 1'
_cell_length_a   9.21765600
_cell_length_b   15.93040200
_cell_length_c   11.94856456
_cell_angle_alpha   90.00000000
_cell_angle_beta   90.01761278
_cell_angle_gamma   90.00000000
_symmetry_Int_Tables_number   1
_chemical_formula_structural   Ba6Ti7Nb9O42
_chemical_formula_sum   'Ba12 Ti14 Nb18 O84'
_cell_volume   1754.53867503
_cell_formula_units_Z   2
loop_
 _symmetry_equiv_pos_site_id
 _symmetry_equiv_pos_as_xyz
  1  'x, y, z'
loop_
 _atom_site_type_symbol
 _atom_site_label
 _atom_site_symmetry_multiplicity
 _atom_site_fract_x
 _atom_site_fract_y
 _atom_site_fract_z
 _atom_site_occupancy
  Ba  Ba0  1  0.40385700  0.00000000  0.24476200  1
  Ba  Ba1  1  0.58875100  0.00000000  0.75094500  1
  Ba  Ba2  1  0.29706000  0.70330700  0.24501600  1
  Ba  Ba3  1  0.20407350  0.79960650  0.75007900  1
  Ba  Ba4  1  0.20407350  0.20039350  0.75007900  1
  Ba  Ba5  1  0.29706000  0.29669300  0.24501600  1
  Ba  Ba6  1  0.90385700  0.50000000  0.24476200  1
  Ba  Ba7  1  0.08875100  0.50000000  0.75094500  1
  Ba  Ba8  1  0.79706000  0.20330700  0.24501600  1
  Ba  Ba9  1  0.70407350  0.29960650  0.75007900  1
  Ba  Ba10  1  0.70407350  0.70039350  0.75007900  1
  Ba  Ba11  1  0.79706000  0.79669300  0.24501600  1
  Ti  Ti12  1  0.25045300  0.00000000  0.90906000  1
  Ti  Ti13  1  0.23841500  0.00000000  0.60017700  1
  Ti  Ti14  1  0.75791400  0.00000000  0.09306300  1
  Ti  Ti15  1  0.87914450  0.12068950  0.59358700  1
  Ti  Ti16  1  0.12412750  0.12029350  0.08994100  1
  Ti  Ti17  1  0.12412750  0.87970650  0.08994100  1
  Ti  Ti18  1  0.87914450  0.87931050  0.59358700  1
  Ti  Ti19  1  0.75045300  0.50000000  0.90906000  1
  Ti  Ti20  1  0.73841500  0.50000000  0.60017700  1
  Ti  Ti21  1  0.25791400  0.50000000  0.09306300  1
  Ti  Ti22  1  0.37914450  0.62068950  0.59358700  1
  Ti  Ti23  1  0.62412750  0.62029350  0.08994100  1
  Ti  Ti24  1  0.62412750  0.37970650  0.08994100  1
  Ti  Ti25  1  0.37914450  0.37931050  0.59358700  1
  Nb  Nb26  1  0.75153800  0.00000000  0.40633600  1
  Nb  Nb27  1  0.49957600  0.16493700  0.00557100  1
  Nb  Nb28  1  0.49992600  0.16672500  0.50914700  1
  Nb  Nb29  1  0.37923550  0.62334550  0.90701100  1
  Nb  Nb30  1  0.12462500  0.12285800  0.40492600  1
  Nb  Nb31  1  0.12462500  0.87714200  0.40492600  1
  Nb  Nb32  1  0.49957600  0.83506300  0.00557100  1
  Nb  Nb33  1  0.49992600  0.83327500  0.50914700  1
  Nb  Nb34  1  0.37923550  0.37665450  0.90701100  1
  Nb  Nb35  1  0.25153800  0.50000000  0.40633600  1
  Nb  Nb36  1  0.99957600  0.66493700  0.00557100  1
  Nb  Nb37  1  0.99992600  0.66672500  0.50914700  1
  Nb  Nb38  1  0.87923550  0.12334550  0.90701100  1
  Nb  Nb39  1  0.62462500  0.62285800  0.40492600  1
  Nb  Nb40  1  0.62462500  0.37714200  0.40492600  1
  Nb  Nb41  1  0.99957600  0.33506300  0.00557100  1
  Nb  Nb42  1  0.99992600  0.33327500  0.50914700  1
  Nb  Nb43  1  0.87923550  0.87665450  0.90701100  1
  O  O44  1  0.20143500  0.00000000  0.07261500  1
  O  O45  1  0.20398500  0.00000000  0.42526600  1
  O  O46  1  0.21228200  0.00000000  0.75163300  1
  O  O47  1  0.39557150  0.08373250  0.59982600  1
  O  O48  1  0.39666800  0.08367700  0.90171100  1
  O  O49  1  0.79365100  0.00000000  0.24850200  1
  O  O50  1  0.79859600  0.00000000  0.57551900  1
  O  O51  1  0.79382100  0.00000000  0.92552300  1
  O  O52  1  0.32334250  0.15610650  0.10151600  1
  O  O53  1  0.32683600  0.15793000  0.39880500  1
  O  O54  1  0.60444900  0.08360000  0.10032300  1
  O  O55  1  0.59977550  0.08454750  0.39878600  1
  O  O56  1  0.67354600  0.15727100  0.89933200  1
  O  O57  1  0.67724750  0.15618950  0.59965300  1
  O  O58  1  0.42713900  0.26065600  0.60006900  1
  O  O59  1  0.42586900  0.25765400  0.89735000  1
  O  O60  1  0.89858300  0.09998600  0.07552400  1
  O  O61  1  0.39757750  0.60265250  0.42597300  1
  O  O62  1  0.39720600  0.60288300  0.74846600  1
  O  O63  1  0.57180150  0.26108450  0.09673000  1
  O  O64  1  0.57338350  0.25796850  0.39945100  1
  O  O65  1  0.10009800  0.09972600  0.57600600  1
  O  O66  1  0.10204550  0.10192850  0.92586100  1
  O  O67  1  0.10379650  0.10299150  0.24762400  1
  O  O68  1  0.42586900  0.74234600  0.89735000  1
  O  O69  1  0.42713900  0.73934400  0.60006900  1
  O  O70  1  0.10379650  0.89700850  0.24762400  1
  O  O71  1  0.10009800  0.90027400  0.57600600  1
  O  O72  1  0.10204550  0.89807150  0.92586100  1
  O  O73  1  0.57180150  0.73891550  0.09673000  1
  O  O74  1  0.57338350  0.74203150  0.39945100  1
  O  O75  1  0.32683600  0.84207000  0.39880500  1
  O  O76  1  0.32334250  0.84389350  0.10151600  1
  O  O77  1  0.39557150  0.91626750  0.59982600  1
  O  O78  1  0.39666800  0.91632300  0.90171100  1
  O  O79  1  0.67724750  0.84381050  0.59965300  1
  O  O80  1  0.67354600  0.84272900  0.89933200  1
  O  O81  1  0.59977550  0.91545250  0.39878600  1
  O  O82  1  0.60444900  0.91640000  0.10032300  1
  O  O83  1  0.39720600  0.39711700  0.74846600  1
  O  O84  1  0.39757750  0.39734750  0.42597300  1
  O  O85  1  0.89858300  0.90001400  0.07552400  1
  O  O86  1  0.70143500  0.50000000  0.07261500  1
  O  O87  1  0.70398500  0.50000000  0.42526600  1
  O  O88  1  0.71228200  0.50000000  0.75163300  1
  O  O89  1  0.89557150  0.58373250  0.59982600  1
  O  O90  1  0.89666800  0.58367700  0.90171100  1
  O  O91  1  0.29365100  0.50000000  0.24850200  1
  O  O92  1  0.29859600  0.50000000  0.57551900  1
  O  O93  1  0.29382100  0.50000000  0.92552300  1
  O  O94  1  0.82334250  0.65610650  0.10151600  1
  O  O95  1  0.82683600  0.65793000  0.39880500  1
  O  O96  1  0.10444900  0.58360000  0.10032300  1
  O  O97  1  0.09977550  0.58454750  0.39878600  1
  O  O98  1  0.17354600  0.65727100  0.89933200  1
  O  O99  1  0.17724750  0.65618950  0.59965300  1
  O  O100  1  0.92713900  0.76065600  0.60006900  1
  O  O101  1  0.92586900  0.75765400  0.89735000  1
  O  O102  1  0.39858300  0.59998600  0.07552400  1
  O  O103  1  0.89757750  0.10265250  0.42597300  1
  O  O104  1  0.89720600  0.10288300  0.74846600  1
  O  O105  1  0.07180150  0.76108450  0.09673000  1
  O  O106  1  0.07338350  0.75796850  0.39945100  1
  O  O107  1  0.60009800  0.59972600  0.57600600  1
  O  O108  1  0.60204550  0.60192850  0.92586100  1
  O  O109  1  0.60379650  0.60299150  0.24762400  1
  O  O110  1  0.92586900  0.24234600  0.89735000  1
  O  O111  1  0.92713900  0.23934400  0.60006900  1
  O  O112  1  0.60379650  0.39700850  0.24762400  1
  O  O113  1  0.60009800  0.40027400  0.57600600  1
  O  O114  1  0.60204550  0.39807150  0.92586100  1
  O  O115  1  0.07180150  0.23891550  0.09673000  1
  O  O116  1  0.07338350  0.24203150  0.39945100  1
  O  O117  1  0.82683600  0.34207000  0.39880500  1
  O  O118  1  0.82334250  0.34389350  0.10151600  1
  O  O119  1  0.89557150  0.41626750  0.59982600  1
  O  O120  1  0.89666800  0.41632300  0.90171100  1
  O  O121  1  0.17724750  0.34381050  0.59965300  1
  O  O122  1  0.17354600  0.34272900  0.89933200  1
  O  O123  1  0.09977550  0.41545250  0.39878600  1
  O  O124  1  0.10444900  0.41640000  0.10032300  1
  O  O125  1  0.89720600  0.89711700  0.74846600  1
  O  O126  1  0.89757750  0.89734750  0.42597300  1
  O  O127  1  0.39858300  0.40001400  0.07552400  1
