# generated using pymatgen
data_LiCu3F10
_symmetry_space_group_name_H-M   'P 1'
_cell_length_a   3.77875700
_cell_length_b   7.22649700
_cell_length_c   14.38420902
_cell_angle_alpha   90.00000000
_cell_angle_beta   90.23600375
_cell_angle_gamma   90.00000000
_symmetry_Int_Tables_number   1
_chemical_formula_structural   LiCu3F10
_chemical_formula_sum   'Li2 Cu6 F20'
_cell_volume   392.78879710
_cell_formula_units_Z   2
loop_
 _symmetry_equiv_pos_site_id
 _symmetry_equiv_pos_as_xyz
  1  'x, y, z'
loop_
 _atom_site_type_symbol
 _atom_site_label
 _atom_site_symmetry_multiplicity
 _atom_site_fract_x
 _atom_site_fract_y
 _atom_site_fract_z
 _atom_site_occupancy
  Li  Li0  1  0.03991800  0.58282800  0.57187800  1
  Li  Li1  1  0.03991800  0.41717200  0.07187800  1
  Cu  Cu2  1  0.01856700  0.90447900  0.97178900  1
  Cu  Cu3  1  0.01610800  0.99766400  0.71855600  1
  Cu  Cu4  1  0.02216500  0.40963200  0.87021200  1
  Cu  Cu5  1  0.01856700  0.09552100  0.47178900  1
  Cu  Cu6  1  0.01610800  0.00233600  0.21855600  1
  Cu  Cu7  1  0.02216500  0.59036800  0.37021200  1
  F  F8  1  0.01107900  0.77371900  0.65647800  1
  F  F9  1  0.01665200  0.90353100  0.84521000  1
  F  F10  1  0.01861300  0.22817000  0.77222300  1
  F  F11  1  0.02437600  0.59774300  0.97208400  1
  F  F12  1  0.02445500  0.23638900  0.96650600  1
  F  F13  1  0.02086300  0.57029600  0.77619300  1
  F  F14  1  0.01107900  0.22628100  0.15647800  1
  F  F15  1  0.01839100  0.12679600  0.59885400  1
  F  F16  1  0.01665200  0.09646900  0.34521000  1
  F  F17  1  0.01861300  0.77183000  0.27222300  1
  F  F18  1  0.02437600  0.40225700  0.47208400  1
  F  F19  1  0.02445500  0.76361100  0.46650600  1
  F  F20  1  0.02086300  0.42970400  0.27619300  1
  F  F21  1  0.01839100  0.87320400  0.09885400  1
  F  F22  1  0.51876000  0.92937300  0.97546200  1
  F  F23  1  0.51600900  0.99384600  0.71863300  1
  F  F24  1  0.52220900  0.41075500  0.87535200  1
  F  F25  1  0.51876000  0.07062700  0.47546200  1
  F  F26  1  0.51600900  0.00615400  0.21863300  1
  F  F27  1  0.52220900  0.58924500  0.37535200  1
