# generated using pymatgen
data_Yb(Bi3O5)4
_symmetry_space_group_name_H-M   'P 1'
_cell_length_a   10.28411400
_cell_length_b   10.28411400
_cell_length_c   10.28411400
_cell_angle_alpha   90.00000000
_cell_angle_beta   90.00000000
_cell_angle_gamma   90.00000000
_symmetry_Int_Tables_number   1
_chemical_formula_structural   Yb(Bi3O5)4
_chemical_formula_sum   'Yb2 Bi24 O40'
_cell_volume   1087.67875685
_cell_formula_units_Z   2
loop_
 _symmetry_equiv_pos_site_id
 _symmetry_equiv_pos_as_xyz
  1  'x, y, z'
loop_
 _atom_site_type_symbol
 _atom_site_label
 _atom_site_symmetry_multiplicity
 _atom_site_fract_x
 _atom_site_fract_y
 _atom_site_fract_z
 _atom_site_occupancy
  Yb  Yb0  1  0.00000000  0.00000000  0.00000000  1
  Yb  Yb1  1  0.50000000  0.50000000  0.50000000  1
  Bi  Bi2  1  0.00167550  0.68347150  0.17187150  1
  Bi  Bi3  1  0.32812850  0.50167550  0.81652850  1
  Bi  Bi4  1  0.32812850  0.49832450  0.18347150  1
  Bi  Bi5  1  0.18347150  0.32812850  0.49832450  1
  Bi  Bi6  1  0.81652850  0.32812850  0.50167550  1
  Bi  Bi7  1  0.99832450  0.31652850  0.17187150  1
  Bi  Bi8  1  0.49832450  0.18347150  0.32812850  1
  Bi  Bi9  1  0.31652850  0.17187150  0.99832450  1
  Bi  Bi10  1  0.68347150  0.17187150  0.00167550  1
  Bi  Bi11  1  0.17187150  0.00167550  0.68347150  1
  Bi  Bi12  1  0.17187150  0.99832450  0.31652850  1
  Bi  Bi13  1  0.50167550  0.81652850  0.32812850  1
  Bi  Bi14  1  0.50167550  0.18347150  0.67187150  1
  Bi  Bi15  1  0.82812850  0.00167550  0.31652850  1
  Bi  Bi16  1  0.82812850  0.99832450  0.68347150  1
  Bi  Bi17  1  0.68347150  0.82812850  0.99832450  1
  Bi  Bi18  1  0.31652850  0.82812850  0.00167550  1
  Bi  Bi19  1  0.49832450  0.81652850  0.67187150  1
  Bi  Bi20  1  0.99832450  0.68347150  0.82812850  1
  Bi  Bi21  1  0.81652850  0.67187150  0.49832450  1
  Bi  Bi22  1  0.18347150  0.67187150  0.50167550  1
  Bi  Bi23  1  0.67187150  0.50167550  0.18347150  1
  Bi  Bi24  1  0.67187150  0.49832450  0.81652850  1
  Bi  Bi25  1  0.00167550  0.31652850  0.82812850  1
  O  O26  1  0.16345200  0.83654800  0.16345200  1
  O  O27  1  0.25701150  0.63214750  0.99148950  1
  O  O28  1  0.37009750  0.62990250  0.37009750  1
  O  O29  1  0.13214750  0.50851050  0.24298850  1
  O  O30  1  0.86785250  0.49148950  0.24298850  1
  O  O31  1  0.62990250  0.37009750  0.37009750  1
  O  O32  1  0.37009750  0.37009750  0.62990250  1
  O  O33  1  0.25701150  0.36785250  0.00851050  1
  O  O34  1  0.33654800  0.33654800  0.33654800  1
  O  O35  1  0.50851050  0.24298850  0.13214750  1
  O  O36  1  0.49148950  0.24298850  0.86785250  1
  O  O37  1  0.99148950  0.25701150  0.63214750  1
  O  O38  1  0.00851050  0.25701150  0.36785250  1
  O  O39  1  0.83654800  0.16345200  0.16345200  1
  O  O40  1  0.16345200  0.16345200  0.83654800  1
  O  O41  1  0.24298850  0.13214750  0.50851050  1
  O  O42  1  0.12990250  0.12990250  0.12990250  1
  O  O43  1  0.36785250  0.00851050  0.25701150  1
  O  O44  1  0.63214750  0.99148950  0.25701150  1
  O  O45  1  0.24298850  0.86785250  0.49148950  1
  O  O46  1  0.66345200  0.33654800  0.66345200  1
  O  O47  1  0.75701150  0.13214750  0.49148950  1
  O  O48  1  0.87009750  0.12990250  0.87009750  1
  O  O49  1  0.63214750  0.00851050  0.74298850  1
  O  O50  1  0.36785250  0.99148950  0.74298850  1
  O  O51  1  0.12990250  0.87009750  0.87009750  1
  O  O52  1  0.87009750  0.87009750  0.12990250  1
  O  O53  1  0.75701150  0.86785250  0.50851050  1
  O  O54  1  0.83654800  0.83654800  0.83654800  1
  O  O55  1  0.00851050  0.74298850  0.63214750  1
  O  O56  1  0.99148950  0.74298850  0.36785250  1
  O  O57  1  0.49148950  0.75701150  0.13214750  1
  O  O58  1  0.50851050  0.75701150  0.86785250  1
  O  O59  1  0.33654800  0.66345200  0.66345200  1
  O  O60  1  0.66345200  0.66345200  0.33654800  1
  O  O61  1  0.74298850  0.63214750  0.00851050  1
  O  O62  1  0.62990250  0.62990250  0.62990250  1
  O  O63  1  0.86785250  0.50851050  0.75701150  1
  O  O64  1  0.13214750  0.49148950  0.75701150  1
  O  O65  1  0.74298850  0.36785250  0.99148950  1
