# generated using pymatgen
data_Li2Fe2SiO6
_symmetry_space_group_name_H-M   'P 1'
_cell_length_a   5.35303000
_cell_length_b   9.66590200
_cell_length_c   6.06566850
_cell_angle_alpha   90.00000000
_cell_angle_beta   90.00000000
_cell_angle_gamma   90.00000000
_symmetry_Int_Tables_number   1
_chemical_formula_structural   Li2Fe2SiO6
_chemical_formula_sum   'Li4 Fe4 Si2 O12'
_cell_volume   313.84899086
_cell_formula_units_Z   2
loop_
 _symmetry_equiv_pos_site_id
 _symmetry_equiv_pos_as_xyz
  1  'x, y, z'
loop_
 _atom_site_type_symbol
 _atom_site_label
 _atom_site_symmetry_multiplicity
 _atom_site_fract_x
 _atom_site_fract_y
 _atom_site_fract_z
 _atom_site_occupancy
  Li  Li0  1  0.00000000  0.00000000  0.78345500  1
  Li  Li1  1  0.00000000  0.00000000  0.21654500  1
  Li  Li2  1  0.50000000  0.50000000  0.78345500  1
  Li  Li3  1  0.50000000  0.50000000  0.21654500  1
  Fe  Fe4  1  0.75000000  0.25000000  0.16983700  1
  Fe  Fe5  1  0.25000000  0.25000000  0.83016300  1
  Fe  Fe6  1  0.25000000  0.75000000  0.16983700  1
  Fe  Fe7  1  0.75000000  0.75000000  0.83016300  1
  Si  Si8  1  0.50000000  0.00000000  0.50000000  1
  Si  Si9  1  0.00000000  0.50000000  0.50000000  1
  O  O10  1  0.00000000  0.16582275  0.00000000  1
  O  O11  1  0.50000000  0.33417725  0.00000000  1
  O  O12  1  0.81099700  0.40874350  0.34468500  1
  O  O13  1  0.18900300  0.40874350  0.65531500  1
  O  O14  1  0.31099700  0.09125650  0.65531500  1
  O  O15  1  0.68900300  0.09125650  0.34468500  1
  O  O16  1  0.50000000  0.66582275  0.00000000  1
  O  O17  1  0.00000000  0.83417725  0.00000000  1
  O  O18  1  0.31099700  0.90874350  0.34468500  1
  O  O19  1  0.68900300  0.90874350  0.65531500  1
  O  O20  1  0.81099700  0.59125650  0.65531500  1
  O  O21  1  0.18900300  0.59125650  0.34468500  1
