# generated using pymatgen
data_Li4Mn2Fe3Cu3O16
_symmetry_space_group_name_H-M   'P 1'
_cell_length_a   10.13676817
_cell_length_b   5.86602310
_cell_length_c   9.42063509
_cell_angle_alpha   90.00000000
_cell_angle_beta   90.16146568
_cell_angle_gamma   90.00000000
_symmetry_Int_Tables_number   1
_chemical_formula_structural   Li4Mn2Fe3Cu3O16
_chemical_formula_sum   'Li8 Mn4 Fe6 Cu6 O32'
_cell_volume   560.17244283
_cell_formula_units_Z   2
loop_
 _symmetry_equiv_pos_site_id
 _symmetry_equiv_pos_as_xyz
  1  'x, y, z'
loop_
 _atom_site_type_symbol
 _atom_site_label
 _atom_site_symmetry_multiplicity
 _atom_site_fract_x
 _atom_site_fract_y
 _atom_site_fract_z
 _atom_site_occupancy
  Li  Li0  1  0.66062750  0.00000000  0.89917100  1
  Li  Li1  1  0.00170600  0.00000000  0.99413800  1
  Li  Li2  1  0.00780650  0.00000000  0.49119500  1
  Li  Li3  1  0.33163250  0.00000000  0.39720000  1
  Li  Li4  1  0.16062750  0.50000000  0.89917100  1
  Li  Li5  1  0.50170600  0.50000000  0.99413800  1
  Li  Li6  1  0.50780650  0.50000000  0.49119500  1
  Li  Li7  1  0.83163250  0.50000000  0.39720000  1
  Mn  Mn8  1  0.66867700  0.00000000  0.48485000  1
  Mn  Mn9  1  0.33193850  0.00000000  0.98498900  1
  Mn  Mn10  1  0.16867700  0.50000000  0.48485000  1
  Mn  Mn11  1  0.83193850  0.50000000  0.98498900  1
  Fe  Fe12  1  0.83085250  0.00000000  0.21320100  1
  Fe  Fe13  1  0.41497550  0.75515850  0.71293900  1
  Fe  Fe14  1  0.41497550  0.24484150  0.71293900  1
  Fe  Fe15  1  0.33085250  0.50000000  0.21320100  1
  Fe  Fe16  1  0.91497550  0.25515850  0.71293900  1
  Fe  Fe17  1  0.91497550  0.74484150  0.71293900  1
  Cu  Cu18  1  0.58553950  0.75604750  0.21259700  1
  Cu  Cu19  1  0.58553950  0.24395250  0.21259700  1
  Cu  Cu20  1  0.17082800  0.00000000  0.71158800  1
  Cu  Cu21  1  0.08553950  0.25604750  0.21259700  1
  Cu  Cu22  1  0.08553950  0.74395250  0.21259700  1
  Cu  Cu23  1  0.67082800  0.50000000  0.71158800  1
  O  O24  1  0.58208200  0.75779300  0.59403100  1
  O  O25  1  0.52138850  0.00000000  0.34896000  1
  O  O26  1  0.66107250  0.00000000  0.10786000  1
  O  O27  1  0.00731150  0.00000000  0.30128700  1
  O  O28  1  0.00583850  0.00000000  0.80441000  1
  O  O29  1  0.58208200  0.24220700  0.59403100  1
  O  O30  1  0.74092650  0.78028150  0.34839900  1
  O  O31  1  0.74092650  0.21971850  0.34839900  1
  O  O32  1  0.16755550  0.00000000  0.09462900  1
  O  O33  1  0.83222100  0.00000000  0.59603500  1
  O  O34  1  0.25914750  0.77763550  0.85010300  1
  O  O35  1  0.25914750  0.22236450  0.85010300  1
  O  O36  1  0.32936950  0.00000000  0.60448300  1
  O  O37  1  0.41276900  0.75172300  0.09542100  1
  O  O38  1  0.47822200  0.00000000  0.84729100  1
  O  O39  1  0.41276900  0.24827700  0.09542100  1
  O  O40  1  0.08208200  0.25779300  0.59403100  1
  O  O41  1  0.02138850  0.50000000  0.34896000  1
  O  O42  1  0.16107250  0.50000000  0.10786000  1
  O  O43  1  0.50731150  0.50000000  0.30128700  1
  O  O44  1  0.50583850  0.50000000  0.80441000  1
  O  O45  1  0.08208200  0.74220700  0.59403100  1
  O  O46  1  0.24092650  0.28028150  0.34839900  1
  O  O47  1  0.24092650  0.71971850  0.34839900  1
  O  O48  1  0.66755550  0.50000000  0.09462900  1
  O  O49  1  0.33222100  0.50000000  0.59603500  1
  O  O50  1  0.75914750  0.27763550  0.85010300  1
  O  O51  1  0.75914750  0.72236450  0.85010300  1
  O  O52  1  0.82936950  0.50000000  0.60448300  1
  O  O53  1  0.91276900  0.25172300  0.09542100  1
  O  O54  1  0.97822200  0.50000000  0.84729100  1
  O  O55  1  0.91276900  0.74827700  0.09542100  1
