# generated using pymatgen
data_Na3LiMnBPO7
_symmetry_space_group_name_H-M   'P 1'
_cell_length_a   5.27072285
_cell_length_b   6.83866104
_cell_length_c   9.63223728
_cell_angle_alpha   90.00000000
_cell_angle_beta   93.41949983
_cell_angle_gamma   90.00000000
_symmetry_Int_Tables_number   1
_chemical_formula_structural   Na3LiMnBPO7
_chemical_formula_sum   'Na6 Li2 Mn2 B2 P2 O14'
_cell_volume   346.57283415
_cell_formula_units_Z   2
loop_
 _symmetry_equiv_pos_site_id
 _symmetry_equiv_pos_as_xyz
  1  'x, y, z'
loop_
 _atom_site_type_symbol
 _atom_site_label
 _atom_site_symmetry_multiplicity
 _atom_site_fract_x
 _atom_site_fract_y
 _atom_site_fract_z
 _atom_site_occupancy
  Na  Na0  1  0.25086000  0.75000000  0.06864200  1
  Na  Na1  1  0.78456900  0.01350000  0.21817500  1
  Na  Na2  1  0.78456900  0.48650000  0.21817500  1
  Na  Na3  1  0.21543100  0.51350000  0.78182500  1
  Na  Na4  1  0.21543100  0.98650000  0.78182500  1
  Na  Na5  1  0.74914000  0.25000000  0.93135800  1
  Li  Li6  1  0.00000000  0.00000000  0.50000000  1
  Li  Li7  1  0.00000000  0.50000000  0.50000000  1
  Mn  Mn8  1  0.29316700  0.25000000  0.31998000  1
  Mn  Mn9  1  0.70683300  0.75000000  0.68002000  1
  B  B10  1  0.27380500  0.25000000  0.05670400  1
  B  B11  1  0.72619500  0.75000000  0.94329600  1
  P  P12  1  0.32043500  0.75000000  0.42217600  1
  P  P13  1  0.67956500  0.25000000  0.57782400  1
  O  O14  1  0.72356100  0.75000000  0.08520400  1
  O  O15  1  0.05039100  0.25000000  0.12840600  1
  O  O16  1  0.49999300  0.25000000  0.14224900  1
  O  O17  1  0.22011700  0.93438700  0.34033200  1
  O  O18  1  0.22011700  0.56561300  0.34033200  1
  O  O19  1  0.81406300  0.25000000  0.43527200  1
  O  O20  1  0.61332400  0.75000000  0.44876400  1
  O  O21  1  0.38667600  0.25000000  0.55123600  1
  O  O22  1  0.18593700  0.75000000  0.56472800  1
  O  O23  1  0.77988300  0.43438700  0.65966800  1
  O  O24  1  0.77988300  0.06561300  0.65966800  1
  O  O25  1  0.50000700  0.75000000  0.85775100  1
  O  O26  1  0.94960900  0.75000000  0.87159400  1
  O  O27  1  0.27643900  0.25000000  0.91479600  1
