# generated using pymatgen
data_Ti3Mn2Cr(PO4)6
_symmetry_space_group_name_H-M   'P 1'
_cell_length_a   8.65547798
_cell_length_b   8.65547798
_cell_length_c   21.16349564
_cell_angle_alpha   90.00000000
_cell_angle_beta   90.00000000
_cell_angle_gamma   120.00000000
_symmetry_Int_Tables_number   1
_chemical_formula_structural   Ti3Mn2Cr(PO4)6
_chemical_formula_sum   'Ti9 Mn6 Cr3 P18 O72'
_cell_volume   1373.09361034
_cell_formula_units_Z   3
loop_
 _symmetry_equiv_pos_site_id
 _symmetry_equiv_pos_as_xyz
  1  'x, y, z'
loop_
 _atom_site_type_symbol
 _atom_site_label
 _atom_site_symmetry_multiplicity
 _atom_site_fract_x
 _atom_site_fract_y
 _atom_site_fract_z
 _atom_site_occupancy
  Ti  Ti0  1  0.33333333  0.66666667  0.31181267  1
  Ti  Ti1  1  0.33333333  0.66666667  0.02146967  1
  Ti  Ti2  1  0.33333333  0.66666667  0.81103767  1
  Ti  Ti3  1  0.00000000  0.00000000  0.64514600  1
  Ti  Ti4  1  0.00000000  0.00000000  0.35480300  1
  Ti  Ti5  1  0.00000000  0.00000000  0.14437100  1
  Ti  Ti6  1  0.66666667  0.33333333  0.97847933  1
  Ti  Ti7  1  0.66666667  0.33333333  0.68813633  1
  Ti  Ti8  1  0.66666667  0.33333333  0.47770433  1
  Mn  Mn9  1  0.33333333  0.66666667  0.16550467  1
  Mn  Mn10  1  0.33333333  0.66666667  0.66698967  1
  Mn  Mn11  1  0.00000000  0.00000000  0.49883800  1
  Mn  Mn12  1  0.00000000  0.00000000  0.00032300  1
  Mn  Mn13  1  0.66666667  0.33333333  0.83217133  1
  Mn  Mn14  1  0.66666667  0.33333333  0.33365633  1
  Cr  Cr15  1  0.33333333  0.66666667  0.52404967  1
  Cr  Cr16  1  0.00000000  0.00000000  0.85738300  1
  Cr  Cr17  1  0.66666667  0.33333333  0.19071633  1
  P  P18  1  0.66633733  0.62337367  0.08438467  1
  P  P19  1  0.70712333  0.00114167  0.24958367  1
  P  P20  1  0.29401833  0.29287667  0.24958367  1
  P  P21  1  0.37662633  0.04296367  0.08438467  1
  P  P22  1  0.95703633  0.33366267  0.08438467  1
  P  P23  1  0.99885833  0.70598167  0.24958367  1
  P  P24  1  0.33300400  0.95670700  0.41771800  1
  P  P25  1  0.37379000  0.33447500  0.58291700  1
  P  P26  1  0.96068500  0.62621000  0.58291700  1
  P  P27  1  0.04329300  0.37629700  0.41771800  1
  P  P28  1  0.62370300  0.66699600  0.41771800  1
  P  P29  1  0.66552500  0.03931500  0.58291700  1
  P  P30  1  0.99967067  0.29004033  0.75105133  1
  P  P31  1  0.04045667  0.66780833  0.91625033  1
  P  P32  1  0.62735167  0.95954333  0.91625033  1
  P  P33  1  0.70995967  0.70963033  0.75105133  1
  P  P34  1  0.29036967  0.00032933  0.75105133  1
  P  P35  1  0.33219167  0.37264833  0.91625033  1
  O  O36  1  0.83478400  0.81263600  0.07856600  1
  O  O37  1  0.66222967  0.52531733  0.14387533  1
  O  O38  1  0.48117233  0.31256967  0.25480667  1
  O  O39  1  0.80722867  0.99890933  0.18972733  1
  O  O40  1  0.52210200  0.66590800  0.35691500  1
  O  O41  1  0.49903733  0.64692167  0.08676867  1
  O  O42  1  0.51872800  0.83111700  0.24556800  1
  O  O43  1  0.68743033  0.16860267  0.25480667  1
  O  O44  1  0.52588433  0.85860567  0.97618367  1
  O  O45  1  0.33272133  0.47411567  0.97618367  1
  O  O46  1  0.19168067  0.19277133  0.18972733  1
  O  O47  1  0.31238900  0.48127200  0.24556800  1
  O  O48  1  0.35307833  0.85211567  0.08676867  1
  O  O49  1  0.33409200  0.85619400  0.35691500  1
  O  O50  1  0.47468267  0.13691233  0.14387533  1
  O  O51  1  0.14380600  0.47789800  0.35691500  1
  O  O52  1  0.97785200  0.16521600  0.07856600  1
  O  O53  1  0.14788433  0.50096267  0.08676867  1
  O  O54  1  0.16888300  0.68761100  0.24556800  1
  O  O55  1  0.14139433  0.66727867  0.97618367  1
  O  O56  1  0.86308767  0.33777033  0.14387533  1
  O  O57  1  0.18736400  0.02214800  0.07856600  1
  O  O58  1  0.00109067  0.80831933  0.18972733  1
  O  O59  1  0.83139733  0.51882767  0.25480667  1
  O  O60  1  0.50145067  0.14596933  0.41189933  1
  O  O61  1  0.32889633  0.85865067  0.47720867  1
  O  O62  1  0.14783900  0.64590300  0.58814000  1
  O  O63  1  0.47389533  0.33224267  0.52306067  1
  O  O64  1  0.18876867  0.99924133  0.69024833  1
  O  O65  1  0.16570400  0.98025500  0.42010200  1
  O  O66  1  0.18539467  0.16445033  0.57890133  1
  O  O67  1  0.35409700  0.50193600  0.58814000  1
  O  O68  1  0.19255100  0.19193900  0.30951700  1
  O  O69  1  0.99938800  0.80744900  0.30951700  1
  O  O70  1  0.85834733  0.52610467  0.52306067  1
  O  O71  1  0.97905567  0.81460533  0.57890133  1
  O  O72  1  0.01974500  0.18544900  0.42010200  1
  O  O73  1  0.00075867  0.18952733  0.69024833  1
  O  O74  1  0.14134933  0.47024567  0.47720867  1
  O  O75  1  0.81047267  0.81123133  0.69024833  1
  O  O76  1  0.64451867  0.49854933  0.41189933  1
  O  O77  1  0.81455100  0.83429600  0.42010200  1
  O  O78  1  0.83554967  0.02094433  0.57890133  1
  O  O79  1  0.80806100  0.00061200  0.30951700  1
  O  O80  1  0.52975433  0.67110367  0.47720867  1
  O  O81  1  0.85403067  0.35548133  0.41189933  1
  O  O82  1  0.66775733  0.14165267  0.52306067  1
  O  O83  1  0.49806400  0.85216100  0.58814000  1
  O  O84  1  0.16811733  0.47930267  0.74523267  1
  O  O85  1  0.99556300  0.19198400  0.81054200  1
  O  O86  1  0.81450567  0.97923633  0.92147333  1
  O  O87  1  0.14056200  0.66557600  0.85639400  1
  O  O88  1  0.85543533  0.33257467  0.02358167  1
  O  O89  1  0.83237067  0.31358833  0.75343533  1
  O  O90  1  0.85206133  0.49778367  0.91223467  1
  O  O91  1  0.02076367  0.83526933  0.92147333  1
  O  O92  1  0.85921767  0.52527233  0.64285033  1
  O  O93  1  0.66605467  0.14078233  0.64285033  1
  O  O94  1  0.52501400  0.85943800  0.85639400  1
  O  O95  1  0.64572233  0.14793867  0.91223467  1
  O  O96  1  0.68641167  0.51878233  0.75343533  1
  O  O97  1  0.66742533  0.52286067  0.02358167  1
  O  O98  1  0.80801600  0.80357900  0.81054200  1
  O  O99  1  0.47713933  0.14456467  0.02358167  1
  O  O100  1  0.31118533  0.83188267  0.74523267  1
  O  O101  1  0.48121767  0.16762933  0.75343533  1
  O  O102  1  0.50221633  0.35427767  0.91223467  1
  O  O103  1  0.47472767  0.33394533  0.64285033  1
  O  O104  1  0.19642100  0.00443700  0.81054200  1
  O  O105  1  0.52069733  0.68881467  0.74523267  1
  O  O106  1  0.33442400  0.47498600  0.85639400  1
  O  O107  1  0.16473067  0.18549433  0.92147333  1
