# generated using pymatgen
data_Li2Mn(SiO3)2
_symmetry_space_group_name_H-M   'P 1'
_cell_length_a   6.32546800
_cell_length_b   21.43197600
_cell_length_c   24.41226400
_cell_angle_alpha   90.00000000
_cell_angle_beta   90.00000000
_cell_angle_gamma   90.00000000
_symmetry_Int_Tables_number   1
_chemical_formula_structural   Li2Mn(SiO3)2
_chemical_formula_sum   'Li48 Mn24 Si48 O144'
_cell_volume   3309.50418920
_cell_formula_units_Z   24
loop_
 _symmetry_equiv_pos_site_id
 _symmetry_equiv_pos_as_xyz
  1  'x, y, z'
loop_
 _atom_site_type_symbol
 _atom_site_label
 _atom_site_symmetry_multiplicity
 _atom_site_fract_x
 _atom_site_fract_y
 _atom_site_fract_z
 _atom_site_occupancy
  Li  Li0  1  0.75000000  0.75000000  0.51260500  1
  Li  Li1  1  0.75000000  0.75000000  0.84451200  1
  Li  Li2  1  0.49846800  0.68535300  0.73323400  1
  Li  Li3  1  0.99443350  0.63950200  0.56636050  1
  Li  Li4  1  0.24443350  0.61049800  0.81636050  1
  Li  Li5  1  0.74846800  0.56464700  0.98323400  1
  Li  Li6  1  0.00000000  0.50000000  0.76260500  1
  Li  Li7  1  0.50000000  0.50000000  0.59451200  1
  Li  Li8  1  0.75153200  0.93535300  0.98323400  1
  Li  Li9  1  0.25556650  0.88950200  0.81636050  1
  Li  Li10  1  0.50556650  0.86049800  0.56636050  1
  Li  Li11  1  0.00153200  0.81464700  0.73323400  1
  Li  Li12  1  0.75000000  0.25000000  0.01260500  1
  Li  Li13  1  0.75000000  0.25000000  0.34451200  1
  Li  Li14  1  0.49846800  0.18535300  0.23323400  1
  Li  Li15  1  0.99443350  0.13950200  0.06636050  1
  Li  Li16  1  0.24443350  0.11049800  0.31636050  1
  Li  Li17  1  0.74846800  0.06464700  0.48323400  1
  Li  Li18  1  0.00000000  0.00000000  0.26260500  1
  Li  Li19  1  0.50000000  0.00000000  0.09451200  1
  Li  Li20  1  0.75153200  0.43535300  0.48323400  1
  Li  Li21  1  0.25556650  0.38950200  0.31636050  1
  Li  Li22  1  0.50556650  0.36049800  0.06636050  1
  Li  Li23  1  0.00153200  0.31464700  0.23323400  1
  Li  Li24  1  0.25000000  0.75000000  0.01260500  1
  Li  Li25  1  0.25000000  0.75000000  0.34451200  1
  Li  Li26  1  0.99846800  0.68535300  0.23323400  1
  Li  Li27  1  0.49443350  0.63950200  0.06636050  1
  Li  Li28  1  0.74443350  0.61049800  0.31636050  1
  Li  Li29  1  0.24846800  0.56464700  0.48323400  1
  Li  Li30  1  0.50000000  0.50000000  0.26260500  1
  Li  Li31  1  0.00000000  0.50000000  0.09451200  1
  Li  Li32  1  0.25153200  0.93535300  0.48323400  1
  Li  Li33  1  0.75556650  0.88950200  0.31636050  1
  Li  Li34  1  0.00556650  0.86049800  0.06636050  1
  Li  Li35  1  0.50153200  0.81464700  0.23323400  1
  Li  Li36  1  0.25000000  0.25000000  0.51260500  1
  Li  Li37  1  0.25000000  0.25000000  0.84451200  1
  Li  Li38  1  0.99846800  0.18535300  0.73323400  1
  Li  Li39  1  0.49443350  0.13950200  0.56636050  1
  Li  Li40  1  0.74443350  0.11049800  0.81636050  1
  Li  Li41  1  0.24846800  0.06464700  0.98323400  1
  Li  Li42  1  0.50000000  0.00000000  0.76260500  1
  Li  Li43  1  0.00000000  0.00000000  0.59451200  1
  Li  Li44  1  0.25153200  0.43535300  0.98323400  1
  Li  Li45  1  0.75556650  0.38950200  0.81636050  1
  Li  Li46  1  0.00556650  0.36049800  0.56636050  1
  Li  Li47  1  0.50153200  0.31464700  0.73323400  1
  Mn  Mn48  1  0.75000000  0.75000000  0.63219700  1
  Mn  Mn49  1  0.48728750  0.66668400  0.92589050  1
  Mn  Mn50  1  0.23728750  0.58331600  0.67589050  1
  Mn  Mn51  1  0.00000000  0.50000000  0.88219700  1
  Mn  Mn52  1  0.26271250  0.91668400  0.67589050  1
  Mn  Mn53  1  0.01271250  0.83331600  0.92589050  1
  Mn  Mn54  1  0.75000000  0.25000000  0.13219700  1
  Mn  Mn55  1  0.48728750  0.16668400  0.42589050  1
  Mn  Mn56  1  0.23728750  0.08331600  0.17589050  1
  Mn  Mn57  1  0.00000000  0.00000000  0.38219700  1
  Mn  Mn58  1  0.26271250  0.41668400  0.17589050  1
  Mn  Mn59  1  0.01271250  0.33331600  0.42589050  1
  Mn  Mn60  1  0.25000000  0.75000000  0.13219700  1
  Mn  Mn61  1  0.98728750  0.66668400  0.42589050  1
  Mn  Mn62  1  0.73728750  0.58331600  0.17589050  1
  Mn  Mn63  1  0.50000000  0.50000000  0.38219700  1
  Mn  Mn64  1  0.76271250  0.91668400  0.17589050  1
  Mn  Mn65  1  0.51271250  0.83331600  0.42589050  1
  Mn  Mn66  1  0.25000000  0.25000000  0.63219700  1
  Mn  Mn67  1  0.98728750  0.16668400  0.92589050  1
  Mn  Mn68  1  0.73728750  0.08331600  0.67589050  1
  Mn  Mn69  1  0.50000000  0.00000000  0.88219700  1
  Mn  Mn70  1  0.76271250  0.41668400  0.67589050  1
  Mn  Mn71  1  0.51271250  0.33331600  0.92589050  1
  Si  Si72  1  0.25000000  0.75000000  0.51432100  1
  Si  Si73  1  0.25000000  0.75000000  0.83615000  1
  Si  Si74  1  0.00560900  0.69346350  0.74208850  1
  Si  Si75  1  0.50456650  0.64090300  0.56606650  1
  Si  Si76  1  0.75456650  0.60909700  0.81606650  1
  Si  Si77  1  0.25560900  0.55653650  0.99208850  1
  Si  Si78  1  0.00000000  0.50000000  0.58615000  1
  Si  Si79  1  0.50000000  0.50000000  0.76432100  1
  Si  Si80  1  0.24439100  0.94346350  0.99208850  1
  Si  Si81  1  0.74543350  0.89090300  0.81606650  1
  Si  Si82  1  0.99543350  0.85909700  0.56606650  1
  Si  Si83  1  0.49439100  0.80653650  0.74208850  1
  Si  Si84  1  0.25000000  0.25000000  0.01432100  1
  Si  Si85  1  0.25000000  0.25000000  0.33615000  1
  Si  Si86  1  0.00560900  0.19346350  0.24208850  1
  Si  Si87  1  0.50456650  0.14090300  0.06606650  1
  Si  Si88  1  0.75456650  0.10909700  0.31606650  1
  Si  Si89  1  0.25560900  0.05653650  0.49208850  1
  Si  Si90  1  0.00000000  0.00000000  0.08615000  1
  Si  Si91  1  0.50000000  0.00000000  0.26432100  1
  Si  Si92  1  0.24439100  0.44346350  0.49208850  1
  Si  Si93  1  0.74543350  0.39090300  0.31606650  1
  Si  Si94  1  0.99543350  0.35909700  0.06606650  1
  Si  Si95  1  0.49439100  0.30653650  0.24208850  1
  Si  Si96  1  0.75000000  0.75000000  0.01432100  1
  Si  Si97  1  0.75000000  0.75000000  0.33615000  1
  Si  Si98  1  0.50560900  0.69346350  0.24208850  1
  Si  Si99  1  0.00456650  0.64090300  0.06606650  1
  Si  Si100  1  0.25456650  0.60909700  0.31606650  1
  Si  Si101  1  0.75560900  0.55653650  0.49208850  1
  Si  Si102  1  0.50000000  0.50000000  0.08615000  1
  Si  Si103  1  0.00000000  0.50000000  0.26432100  1
  Si  Si104  1  0.74439100  0.94346350  0.49208850  1
  Si  Si105  1  0.24543350  0.89090300  0.31606650  1
  Si  Si106  1  0.49543350  0.85909700  0.06606650  1
  Si  Si107  1  0.99439100  0.80653650  0.24208850  1
  Si  Si108  1  0.75000000  0.25000000  0.51432100  1
  Si  Si109  1  0.75000000  0.25000000  0.83615000  1
  Si  Si110  1  0.50560900  0.19346350  0.74208850  1
  Si  Si111  1  0.00456650  0.14090300  0.56606650  1
  Si  Si112  1  0.25456650  0.10909700  0.81606650  1
  Si  Si113  1  0.75560900  0.05653650  0.99208850  1
  Si  Si114  1  0.50000000  0.00000000  0.58615000  1
  Si  Si115  1  0.00000000  0.00000000  0.76432100  1
  Si  Si116  1  0.74439100  0.44346350  0.99208850  1
  Si  Si117  1  0.24543350  0.39090300  0.81606650  1
  Si  Si118  1  0.49543350  0.35909700  0.56606650  1
  Si  Si119  1  0.99439100  0.30653650  0.74208850  1
  O  O120  1  0.03498350  0.74438250  0.79470300  1
  O  O121  1  0.53400550  0.73855100  0.98045950  1
  O  O122  1  0.97581250  0.73740450  0.68974300  1
  O  O123  1  0.71611950  0.68341100  0.57150850  1
  O  O124  1  0.28960150  0.68588650  0.55461000  1
  O  O125  1  0.26197000  0.68451250  0.86815950  1
  O  O126  1  0.78574100  0.65293200  0.75815500  1
  O  O127  1  0.71406800  0.65663750  0.86618150  1
  O  O128  1  0.21363100  0.64890900  0.73973300  1
  O  O129  1  0.46363100  0.60109100  0.98973300  1
  O  O130  1  0.46406800  0.59336250  0.61618150  1
  O  O131  1  0.53574100  0.59706800  0.50815500  1
  O  O132  1  0.01197000  0.56548750  0.61815950  1
  O  O133  1  0.53960150  0.56411350  0.80461000  1
  O  O134  1  0.96611950  0.56658900  0.82150850  1
  O  O135  1  0.22581250  0.51259550  0.93974300  1
  O  O136  1  0.28400550  0.51144900  0.73045950  1
  O  O137  1  0.78498350  0.50561750  0.54470300  1
  O  O138  1  0.71501650  0.99438250  0.54470300  1
  O  O139  1  0.21599450  0.98855100  0.73045950  1
  O  O140  1  0.27418750  0.98740450  0.93974300  1
  O  O141  1  0.53388050  0.93341100  0.82150850  1
  O  O142  1  0.96039850  0.93588650  0.80461000  1
  O  O143  1  0.48803000  0.93451250  0.61815950  1
  O  O144  1  0.96425900  0.90293200  0.50815500  1
  O  O145  1  0.03593200  0.90663750  0.61618150  1
  O  O146  1  0.03636900  0.89890900  0.98973300  1
  O  O147  1  0.28636900  0.85109100  0.73973300  1
  O  O148  1  0.78593200  0.84336250  0.86618150  1
  O  O149  1  0.71425900  0.84706800  0.75815500  1
  O  O150  1  0.23803000  0.81548750  0.86815950  1
  O  O151  1  0.21039850  0.81411350  0.55461000  1
  O  O152  1  0.78388050  0.81658900  0.57150850  1
  O  O153  1  0.52418750  0.76259550  0.68974300  1
  O  O154  1  0.96599450  0.76144900  0.98045950  1
  O  O155  1  0.46501650  0.75561750  0.79470300  1
  O  O156  1  0.03498350  0.24438250  0.29470300  1
  O  O157  1  0.53400550  0.23855100  0.48045950  1
  O  O158  1  0.97581250  0.23740450  0.18974300  1
  O  O159  1  0.71611950  0.18341100  0.07150850  1
  O  O160  1  0.28960150  0.18588650  0.05461000  1
  O  O161  1  0.26197000  0.18451250  0.36815950  1
  O  O162  1  0.78574100  0.15293200  0.25815500  1
  O  O163  1  0.71406800  0.15663750  0.36618150  1
  O  O164  1  0.21363100  0.14890900  0.23973300  1
  O  O165  1  0.46363100  0.10109100  0.48973300  1
  O  O166  1  0.46406800  0.09336250  0.11618150  1
  O  O167  1  0.53574100  0.09706800  0.00815500  1
  O  O168  1  0.01197000  0.06548750  0.11815950  1
  O  O169  1  0.53960150  0.06411350  0.30461000  1
  O  O170  1  0.96611950  0.06658900  0.32150850  1
  O  O171  1  0.22581250  0.01259550  0.43974300  1
  O  O172  1  0.28400550  0.01144900  0.23045950  1
  O  O173  1  0.78498350  0.00561750  0.04470300  1
  O  O174  1  0.71501650  0.49438250  0.04470300  1
  O  O175  1  0.21599450  0.48855100  0.23045950  1
  O  O176  1  0.27418750  0.48740450  0.43974300  1
  O  O177  1  0.53388050  0.43341100  0.32150850  1
  O  O178  1  0.96039850  0.43588650  0.30461000  1
  O  O179  1  0.48803000  0.43451250  0.11815950  1
  O  O180  1  0.96425900  0.40293200  0.00815500  1
  O  O181  1  0.03593200  0.40663750  0.11618150  1
  O  O182  1  0.03636900  0.39890900  0.48973300  1
  O  O183  1  0.28636900  0.35109100  0.23973300  1
  O  O184  1  0.78593200  0.34336250  0.36618150  1
  O  O185  1  0.71425900  0.34706800  0.25815500  1
  O  O186  1  0.23803000  0.31548750  0.36815950  1
  O  O187  1  0.21039850  0.31411350  0.05461000  1
  O  O188  1  0.78388050  0.31658900  0.07150850  1
  O  O189  1  0.52418750  0.26259550  0.18974300  1
  O  O190  1  0.96599450  0.26144900  0.48045950  1
  O  O191  1  0.46501650  0.25561750  0.29470300  1
  O  O192  1  0.53498350  0.74438250  0.29470300  1
  O  O193  1  0.03400550  0.73855100  0.48045950  1
  O  O194  1  0.47581250  0.73740450  0.18974300  1
  O  O195  1  0.21611950  0.68341100  0.07150850  1
  O  O196  1  0.78960150  0.68588650  0.05461000  1
  O  O197  1  0.76197000  0.68451250  0.36815950  1
  O  O198  1  0.28574100  0.65293200  0.25815500  1
  O  O199  1  0.21406800  0.65663750  0.36618150  1
  O  O200  1  0.71363100  0.64890900  0.23973300  1
  O  O201  1  0.96363100  0.60109100  0.48973300  1
  O  O202  1  0.96406800  0.59336250  0.11618150  1
  O  O203  1  0.03574100  0.59706800  0.00815500  1
  O  O204  1  0.51197000  0.56548750  0.11815950  1
  O  O205  1  0.03960150  0.56411350  0.30461000  1
  O  O206  1  0.46611950  0.56658900  0.32150850  1
  O  O207  1  0.72581250  0.51259550  0.43974300  1
  O  O208  1  0.78400550  0.51144900  0.23045950  1
  O  O209  1  0.28498350  0.50561750  0.04470300  1
  O  O210  1  0.21501650  0.99438250  0.04470300  1
  O  O211  1  0.71599450  0.98855100  0.23045950  1
  O  O212  1  0.77418750  0.98740450  0.43974300  1
  O  O213  1  0.03388050  0.93341100  0.32150850  1
  O  O214  1  0.46039850  0.93588650  0.30461000  1
  O  O215  1  0.98803000  0.93451250  0.11815950  1
  O  O216  1  0.46425900  0.90293200  0.00815500  1
  O  O217  1  0.53593200  0.90663750  0.11618150  1
  O  O218  1  0.53636900  0.89890900  0.48973300  1
  O  O219  1  0.78636900  0.85109100  0.23973300  1
  O  O220  1  0.28593200  0.84336250  0.36618150  1
  O  O221  1  0.21425900  0.84706800  0.25815500  1
  O  O222  1  0.73803000  0.81548750  0.36815950  1
  O  O223  1  0.71039850  0.81411350  0.05461000  1
  O  O224  1  0.28388050  0.81658900  0.07150850  1
  O  O225  1  0.02418750  0.76259550  0.18974300  1
  O  O226  1  0.46599450  0.76144900  0.48045950  1
  O  O227  1  0.96501650  0.75561750  0.29470300  1
  O  O228  1  0.53498350  0.24438250  0.79470300  1
  O  O229  1  0.03400550  0.23855100  0.98045950  1
  O  O230  1  0.47581250  0.23740450  0.68974300  1
  O  O231  1  0.21611950  0.18341100  0.57150850  1
  O  O232  1  0.78960150  0.18588650  0.55461000  1
  O  O233  1  0.76197000  0.18451250  0.86815950  1
  O  O234  1  0.28574100  0.15293200  0.75815500  1
  O  O235  1  0.21406800  0.15663750  0.86618150  1
  O  O236  1  0.71363100  0.14890900  0.73973300  1
  O  O237  1  0.96363100  0.10109100  0.98973300  1
  O  O238  1  0.96406800  0.09336250  0.61618150  1
  O  O239  1  0.03574100  0.09706800  0.50815500  1
  O  O240  1  0.51197000  0.06548750  0.61815950  1
  O  O241  1  0.03960150  0.06411350  0.80461000  1
  O  O242  1  0.46611950  0.06658900  0.82150850  1
  O  O243  1  0.72581250  0.01259550  0.93974300  1
  O  O244  1  0.78400550  0.01144900  0.73045950  1
  O  O245  1  0.28498350  0.00561750  0.54470300  1
  O  O246  1  0.21501650  0.49438250  0.54470300  1
  O  O247  1  0.71599450  0.48855100  0.73045950  1
  O  O248  1  0.77418750  0.48740450  0.93974300  1
  O  O249  1  0.03388050  0.43341100  0.82150850  1
  O  O250  1  0.46039850  0.43588650  0.80461000  1
  O  O251  1  0.98803000  0.43451250  0.61815950  1
  O  O252  1  0.46425900  0.40293200  0.50815500  1
  O  O253  1  0.53593200  0.40663750  0.61618150  1
  O  O254  1  0.53636900  0.39890900  0.98973300  1
  O  O255  1  0.78636900  0.35109100  0.73973300  1
  O  O256  1  0.28593200  0.34336250  0.86618150  1
  O  O257  1  0.21425900  0.34706800  0.75815500  1
  O  O258  1  0.73803000  0.31548750  0.86815950  1
  O  O259  1  0.71039850  0.31411350  0.55461000  1
  O  O260  1  0.28388050  0.31658900  0.57150850  1
  O  O261  1  0.02418750  0.26259550  0.68974300  1
  O  O262  1  0.46599450  0.26144900  0.98045950  1
  O  O263  1  0.96501650  0.25561750  0.79470300  1
