# generated using pymatgen
data_SmZr4O9
_symmetry_space_group_name_H-M   'P 1'
_cell_length_a   3.56760000
_cell_length_b   5.23950600
_cell_length_c   18.85096200
_cell_angle_alpha   90.00000000
_cell_angle_beta   90.00000000
_cell_angle_gamma   90.00000000
_symmetry_Int_Tables_number   1
_chemical_formula_structural   SmZr4O9
_chemical_formula_sum   'Sm2 Zr8 O18'
_cell_volume   352.37088341
_cell_formula_units_Z   2
loop_
 _symmetry_equiv_pos_site_id
 _symmetry_equiv_pos_as_xyz
  1  'x, y, z'
loop_
 _atom_site_type_symbol
 _atom_site_label
 _atom_site_symmetry_multiplicity
 _atom_site_fract_x
 _atom_site_fract_y
 _atom_site_fract_z
 _atom_site_occupancy
  Sm  Sm0  1  0.00000000  0.98531300  0.00000000  1
  Sm  Sm1  1  0.50000000  0.48531300  0.50000000  1
  Zr  Zr2  1  0.50000000  0.51658600  0.10924100  1
  Zr  Zr3  1  0.50000000  0.51390350  0.30235550  1
  Zr  Zr4  1  0.00000000  0.01658600  0.39075900  1
  Zr  Zr5  1  0.00000000  0.01390350  0.19764450  1
  Zr  Zr6  1  0.00000000  0.01658600  0.60924100  1
  Zr  Zr7  1  0.00000000  0.01390350  0.80235550  1
  Zr  Zr8  1  0.50000000  0.51658600  0.89075900  1
  Zr  Zr9  1  0.50000000  0.51390350  0.69764450  1
  O  O10  1  0.00000000  0.76317450  0.10722850  1
  O  O11  1  0.50000000  0.60370600  0.00000000  1
  O  O12  1  0.50000000  0.26317450  0.39277150  1
  O  O13  1  0.00000000  0.76160150  0.29944850  1
  O  O14  1  0.00000000  0.26380900  0.09756000  1
  O  O15  1  0.50000000  0.76141700  0.20304600  1
  O  O16  1  0.50000000  0.76380900  0.40244000  1
  O  O17  1  0.50000000  0.26160150  0.20055150  1
  O  O18  1  0.00000000  0.26141700  0.29695400  1
  O  O19  1  0.50000000  0.26317450  0.60722850  1
  O  O20  1  0.00000000  0.10370600  0.50000000  1
  O  O21  1  0.00000000  0.76317450  0.89277150  1
  O  O22  1  0.50000000  0.26160150  0.79944850  1
  O  O23  1  0.50000000  0.76380900  0.59756000  1
  O  O24  1  0.00000000  0.26141700  0.70304600  1
  O  O25  1  0.00000000  0.26380900  0.90244000  1
  O  O26  1  0.00000000  0.76160150  0.70055150  1
  O  O27  1  0.50000000  0.76141700  0.79695400  1
