# generated using pymatgen
data_LiNiPO4
_symmetry_space_group_name_H-M   'P 1'
_cell_length_a   5.65494900
_cell_length_b   5.65494900
_cell_length_c   7.99006700
_cell_angle_alpha   90.00000000
_cell_angle_beta   90.00000000
_cell_angle_gamma   90.00000000
_symmetry_Int_Tables_number   1
_chemical_formula_structural   LiNiPO4
_chemical_formula_sum   'Li4 Ni4 P4 O16'
_cell_volume   255.50994361
_cell_formula_units_Z   4
loop_
 _symmetry_equiv_pos_site_id
 _symmetry_equiv_pos_as_xyz
  1  'x, y, z'
loop_
 _atom_site_type_symbol
 _atom_site_label
 _atom_site_symmetry_multiplicity
 _atom_site_fract_x
 _atom_site_fract_y
 _atom_site_fract_z
 _atom_site_occupancy
  Li  Li0  1  0.50000000  0.72846150  0.00000000  1
  Li  Li1  1  0.50000000  0.27153850  0.50000000  1
  Li  Li2  1  0.72846150  0.50000000  0.25000000  1
  Li  Li3  1  0.27153850  0.50000000  0.75000000  1
  Ni  Ni4  1  0.73795250  0.00000000  0.25000000  1
  Ni  Ni5  1  0.00000000  0.73795250  0.00000000  1
  Ni  Ni6  1  0.00000000  0.26204750  0.50000000  1
  Ni  Ni7  1  0.26204750  0.00000000  0.75000000  1
  P  P8  1  0.75366150  0.75366150  0.62500000  1
  P  P9  1  0.75366150  0.24633850  0.87500000  1
  P  P10  1  0.24633850  0.75366150  0.37500000  1
  P  P11  1  0.24633850  0.24633850  0.12500000  1
  O  O12  1  0.47123250  0.75405650  0.26319100  1
  O  O13  1  0.47123250  0.24594350  0.23680900  1
  O  O14  1  0.75405650  0.47123250  0.98680900  1
  O  O15  1  0.75405650  0.52876750  0.51319100  1
  O  O16  1  0.75436250  0.01828050  0.98961900  1
  O  O17  1  0.75436250  0.98171950  0.51038100  1
  O  O18  1  0.01828050  0.75436250  0.26038100  1
  O  O19  1  0.01828050  0.24563750  0.23961900  1
  O  O20  1  0.98171950  0.75436250  0.73961900  1
  O  O21  1  0.98171950  0.24563750  0.76038100  1
  O  O22  1  0.24563750  0.98171950  0.48961900  1
  O  O23  1  0.24563750  0.01828050  0.01038100  1
  O  O24  1  0.24594350  0.52876750  0.48680900  1
  O  O25  1  0.24594350  0.47123250  0.01319100  1
  O  O26  1  0.52876750  0.75405650  0.73680900  1
  O  O27  1  0.52876750  0.24594350  0.76319100  1
