# generated using pymatgen
data_CrCo5O12
_symmetry_space_group_name_H-M   'P 1'
_cell_length_a   4.92004400
_cell_length_b   8.53047200
_cell_length_c   9.79612993
_cell_angle_alpha   90.00000000
_cell_angle_beta   90.08559163
_cell_angle_gamma   90.00000000
_symmetry_Int_Tables_number   1
_chemical_formula_structural   CrCo5O12
_chemical_formula_sum   'Cr2 Co10 O24'
_cell_volume   411.14602957
_cell_formula_units_Z   2
loop_
 _symmetry_equiv_pos_site_id
 _symmetry_equiv_pos_as_xyz
  1  'x, y, z'
loop_
 _atom_site_type_symbol
 _atom_site_label
 _atom_site_symmetry_multiplicity
 _atom_site_fract_x
 _atom_site_fract_y
 _atom_site_fract_z
 _atom_site_occupancy
  Cr  Cr0  1  0.00000000  0.00000000  0.00000000  1
  Cr  Cr1  1  0.50000000  0.50000000  0.00000000  1
  Co  Co2  1  0.00000000  0.16662100  0.50000000  1
  Co  Co3  1  0.50000000  0.16660100  0.00000000  1
  Co  Co4  1  0.00000000  0.33339900  0.00000000  1
  Co  Co5  1  0.50000000  0.33337900  0.50000000  1
  Co  Co6  1  0.50000000  0.00000000  0.50000000  1
  Co  Co7  1  0.50000000  0.66662100  0.50000000  1
  Co  Co8  1  0.00000000  0.66660100  0.00000000  1
  Co  Co9  1  0.50000000  0.83339900  0.00000000  1
  Co  Co10  1  0.00000000  0.83337900  0.50000000  1
  Co  Co11  1  0.00000000  0.50000000  0.50000000  1
  O  O12  1  0.16990200  0.17027800  0.09842200  1
  O  O13  1  0.83009800  0.17027800  0.90157800  1
  O  O14  1  0.16649950  0.33337550  0.40315700  1
  O  O15  1  0.66649950  0.16662450  0.40315700  1
  O  O16  1  0.83350050  0.33337550  0.59684300  1
  O  O17  1  0.83354800  0.00000000  0.59684600  1
  O  O18  1  0.33350050  0.16662450  0.59684300  1
  O  O19  1  0.66990200  0.32972200  0.09842200  1
  O  O20  1  0.65991900  0.00000000  0.09830400  1
  O  O21  1  0.33009800  0.32972200  0.90157800  1
  O  O22  1  0.34008100  0.00000000  0.90169600  1
  O  O23  1  0.16645200  0.00000000  0.40315400  1
  O  O24  1  0.66990200  0.67027800  0.09842200  1
  O  O25  1  0.33009800  0.67027800  0.90157800  1
  O  O26  1  0.66649950  0.83337550  0.40315700  1
  O  O27  1  0.16649950  0.66662450  0.40315700  1
  O  O28  1  0.33350050  0.83337550  0.59684300  1
  O  O29  1  0.33354800  0.50000000  0.59684600  1
  O  O30  1  0.83350050  0.66662450  0.59684300  1
  O  O31  1  0.16990200  0.82972200  0.09842200  1
  O  O32  1  0.15991900  0.50000000  0.09830400  1
  O  O33  1  0.83009800  0.82972200  0.90157800  1
  O  O34  1  0.84008100  0.50000000  0.90169600  1
  O  O35  1  0.66645200  0.50000000  0.40315400  1
