# generated using pymatgen
data_Li2MnO2F
_symmetry_space_group_name_H-M   'P 1'
_cell_length_a   5.88832954
_cell_length_b   8.60233000
_cell_length_c   9.32097920
_cell_angle_alpha   90.00000000
_cell_angle_beta   107.90730870
_cell_angle_gamma   90.00000000
_symmetry_Int_Tables_number   1
_chemical_formula_structural   Li2MnO2F
_chemical_formula_sum   'Li16 Mn8 O16 F8'
_cell_volume   449.26618038
_cell_formula_units_Z   8
loop_
 _symmetry_equiv_pos_site_id
 _symmetry_equiv_pos_as_xyz
  1  'x, y, z'
loop_
 _atom_site_type_symbol
 _atom_site_label
 _atom_site_symmetry_multiplicity
 _atom_site_fract_x
 _atom_site_fract_y
 _atom_site_fract_z
 _atom_site_occupancy
  Li  Li0  1  0.24767550  0.12855950  0.72781400  1
  Li  Li1  1  0.24767550  0.87144050  0.22781400  1
  Li  Li2  1  0.43214200  0.39170600  0.61030500  1
  Li  Li3  1  0.57992400  0.37718300  0.91051900  1
  Li  Li4  1  0.93214200  0.10829400  0.11030500  1
  Li  Li5  1  0.07992400  0.12281700  0.41051900  1
  Li  Li6  1  0.24357350  0.62889350  0.74405100  1
  Li  Li7  1  0.24357350  0.37110650  0.24405100  1
  Li  Li8  1  0.74767550  0.62855950  0.72781400  1
  Li  Li9  1  0.74767550  0.37144050  0.22781400  1
  Li  Li10  1  0.93214200  0.89170600  0.61030500  1
  Li  Li11  1  0.07992400  0.87718300  0.91051900  1
  Li  Li12  1  0.43214200  0.60829400  0.11030500  1
  Li  Li13  1  0.57992400  0.62281700  0.41051900  1
  Li  Li14  1  0.74357350  0.12889350  0.74405100  1
  Li  Li15  1  0.74357350  0.87110650  0.24405100  1
  Mn  Mn16  1  0.08221350  0.37488650  0.91467900  1
  Mn  Mn17  1  0.92081400  0.37325700  0.59013500  1
  Mn  Mn18  1  0.58221350  0.12511350  0.41467900  1
  Mn  Mn19  1  0.42081400  0.12674300  0.09013500  1
  Mn  Mn20  1  0.58221350  0.87488650  0.91467900  1
  Mn  Mn21  1  0.42081400  0.87325700  0.59013500  1
  Mn  Mn22  1  0.08221350  0.62511350  0.41467900  1
  Mn  Mn23  1  0.92081400  0.62674300  0.09013500  1
  O  O24  1  0.23959600  0.36574300  0.75830300  1
  O  O25  1  0.42781450  0.09652050  0.57203700  1
  O  O26  1  0.89284050  0.14834650  0.57305400  1
  O  O27  1  0.23959600  0.63425700  0.25830300  1
  O  O28  1  0.27151800  0.88462900  0.75760800  1
  O  O29  1  0.92781450  0.40347950  0.07203700  1
  O  O30  1  0.39284050  0.35165350  0.07305400  1
  O  O31  1  0.27151800  0.11537100  0.25760800  1
  O  O32  1  0.73959600  0.86574300  0.75830300  1
  O  O33  1  0.92781450  0.59652050  0.57203700  1
  O  O34  1  0.39284050  0.64834650  0.57305400  1
  O  O35  1  0.73959600  0.13425700  0.25830300  1
  O  O36  1  0.77151800  0.38462900  0.75760800  1
  O  O37  1  0.42781450  0.90347950  0.07203700  1
  O  O38  1  0.89284050  0.85165350  0.07305400  1
  O  O39  1  0.77151800  0.61537100  0.25760800  1
  F  F40  1  0.06634200  0.11531500  0.92224300  1
  F  F41  1  0.59550950  0.13670150  0.91924700  1
  F  F42  1  0.56634200  0.38468500  0.42224300  1
  F  F43  1  0.09550950  0.36329850  0.41924700  1
  F  F44  1  0.56634200  0.61531500  0.92224300  1
  F  F45  1  0.09550950  0.63670150  0.91924700  1
  F  F46  1  0.06634200  0.88468500  0.42224300  1
  F  F47  1  0.59550950  0.86329850  0.41924700  1
