# generated using pymatgen
data_TiMn(PO4)2
_symmetry_space_group_name_H-M   'P 1'
_cell_length_a   5.01757094
_cell_length_b   6.04748700
_cell_length_c   10.10625045
_cell_angle_alpha   90.00000000
_cell_angle_beta   90.73770505
_cell_angle_gamma   90.00000000
_symmetry_Int_Tables_number   1
_chemical_formula_structural   TiMn(PO4)2
_chemical_formula_sum   'Ti2 Mn2 P4 O16'
_cell_volume   306.63556341
_cell_formula_units_Z   2
loop_
 _symmetry_equiv_pos_site_id
 _symmetry_equiv_pos_as_xyz
  1  'x, y, z'
loop_
 _atom_site_type_symbol
 _atom_site_label
 _atom_site_symmetry_multiplicity
 _atom_site_fract_x
 _atom_site_fract_y
 _atom_site_fract_z
 _atom_site_occupancy
  Ti  Ti0  1  0.46957850  0.25000000  0.77916750  1
  Ti  Ti1  1  0.53042150  0.75000000  0.22083250  1
  Mn  Mn2  1  0.96867300  0.75000000  0.72785900  1
  Mn  Mn3  1  0.03132700  0.25000000  0.27214100  1
  P  P4  1  0.44659900  0.75000000  0.90492100  1
  P  P5  1  0.55340100  0.25000000  0.09507900  1
  P  P6  1  0.88907150  0.25000000  0.60669050  1
  P  P7  1  0.11092850  0.75000000  0.39330950  1
  O  O8  1  0.64221550  0.25000000  0.94699700  1
  O  O9  1  0.35778450  0.75000000  0.05300300  1
  O  O10  1  0.74578550  0.75000000  0.89782950  1
  O  O11  1  0.25421450  0.25000000  0.10217050  1
  O  O12  1  0.18562750  0.25000000  0.65253700  1
  O  O13  1  0.81437250  0.75000000  0.34746300  1
  O  O14  1  0.13588750  0.75000000  0.54122950  1
  O  O15  1  0.86411250  0.25000000  0.45877050  1
  O  O16  1  0.31085600  0.95337250  0.83277450  1
  O  O17  1  0.31085600  0.54662750  0.83277450  1
  O  O18  1  0.68914400  0.45337250  0.16722550  1
  O  O19  1  0.68914400  0.04662750  0.16722550  1
  O  O20  1  0.73531800  0.05590500  0.67734800  1
  O  O21  1  0.73531800  0.44409500  0.67734800  1
  O  O22  1  0.26468200  0.94409500  0.32265200  1
  O  O23  1  0.26468200  0.55590500  0.32265200  1
