# generated using pymatgen
data_Li2Mg2(WO4)3
_symmetry_space_group_name_H-M   'P 1'
_cell_length_a   10.66440300
_cell_length_b   5.21146400
_cell_length_c   20.79452082
_cell_angle_alpha   90.00000000
_cell_angle_beta   120.57909479
_cell_angle_gamma   90.00000000
_symmetry_Int_Tables_number   1
_chemical_formula_structural   Li2Mg2(WO4)3
_chemical_formula_sum   'Li8 Mg8 W12 O48'
_cell_volume   994.97435993
_cell_formula_units_Z   4
loop_
 _symmetry_equiv_pos_site_id
 _symmetry_equiv_pos_as_xyz
  1  'x, y, z'
loop_
 _atom_site_type_symbol
 _atom_site_label
 _atom_site_symmetry_multiplicity
 _atom_site_fract_x
 _atom_site_fract_y
 _atom_site_fract_z
 _atom_site_occupancy
  Li  Li0  1  0.54702600  0.99664700  0.30079600  1
  Li  Li1  1  0.54710300  0.99675800  0.97015500  1
  Li  Li2  1  0.54710300  0.00324200  0.47015500  1
  Li  Li3  1  0.54702600  0.00335300  0.80079600  1
  Li  Li4  1  0.00005300  0.35576700  0.24911100  1
  Li  Li5  1  0.45105200  0.49534500  0.20097300  1
  Li  Li6  1  0.45105200  0.50465500  0.70097300  1
  Li  Li7  1  0.00005300  0.64423300  0.74911100  1
  Mg  Mg8  1  0.00109200  0.85502800  0.25031200  1
  Mg  Mg9  1  0.89433100  0.99796400  0.97252600  1
  Mg  Mg10  1  0.89433100  0.00203600  0.47252600  1
  Mg  Mg11  1  0.00109200  0.14497200  0.75031200  1
  Mg  Mg12  1  0.45619900  0.49741000  0.52707400  1
  Mg  Mg13  1  0.10354500  0.49804500  0.52788900  1
  Mg  Mg14  1  0.45619900  0.50259000  0.02707400  1
  Mg  Mg15  1  0.10354500  0.50195500  0.02788900  1
  W  W16  1  0.19302200  0.96743200  0.94225200  1
  W  W17  1  0.62933600  0.97175900  0.65672100  1
  W  W18  1  0.18551700  0.96925600  0.65712200  1
  W  W19  1  0.62933600  0.02824100  0.15672100  1
  W  W20  1  0.18551700  0.03074400  0.15712200  1
  W  W21  1  0.19302200  0.03256800  0.44225200  1
  W  W22  1  0.80826800  0.46784900  0.55848700  1
  W  W23  1  0.36912100  0.47232300  0.84293800  1
  W  W24  1  0.81594400  0.47034200  0.84280300  1
  W  W25  1  0.81594400  0.52965800  0.34280300  1
  W  W26  1  0.36912100  0.52767700  0.34293800  1
  W  W27  1  0.80826800  0.53215100  0.05848700  1
  O  O28  1  0.76224100  0.81111700  0.37543200  1
  O  O29  1  0.48762500  0.80403300  0.37338400  1
  O  O30  1  0.75127300  0.81018100  0.99624800  1
  O  O31  1  0.59099800  0.82922200  0.21511300  1
  O  O32  1  0.33759000  0.82778200  0.21303100  1
  O  O33  1  0.06608800  0.83178000  0.07367800  1
  O  O34  1  0.58403300  0.82645200  0.07573300  1
  O  O35  1  0.34490900  0.82725400  0.46374800  1
  O  O36  1  0.07662500  0.83416300  0.46374300  1
  O  O37  1  0.08708900  0.89792400  0.70501500  1
  O  O38  1  0.82384600  0.89996000  0.70537900  1
  O  O39  1  0.09320500  0.89752200  0.84362700  1
  O  O40  1  0.09320500  0.10247800  0.34362700  1
  O  O41  1  0.08708900  0.10207600  0.20501500  1
  O  O42  1  0.82384600  0.10004000  0.20537900  1
  O  O43  1  0.07662500  0.16583700  0.96374300  1
  O  O44  1  0.34490900  0.17274600  0.96374800  1
  O  O45  1  0.06608800  0.16822000  0.57367800  1
  O  O46  1  0.58403300  0.17354800  0.57573300  1
  O  O47  1  0.59099800  0.17077800  0.71511300  1
  O  O48  1  0.33759000  0.17221800  0.71303100  1
  O  O49  1  0.75127300  0.18981900  0.49624800  1
  O  O50  1  0.76224100  0.18888300  0.87543200  1
  O  O51  1  0.48762500  0.19596700  0.87338400  1
  O  O52  1  0.51021600  0.31163600  0.12434800  1
  O  O53  1  0.23864200  0.31379000  0.12441000  1
  O  O54  1  0.25426200  0.31775400  0.50493700  1
  O  O55  1  0.66314600  0.32850800  0.28567200  1
  O  O56  1  0.40740800  0.32506500  0.28438600  1
  O  O57  1  0.41071000  0.33487000  0.42600400  1
  O  O58  1  0.93669000  0.33037400  0.42632100  1
  O  O59  1  0.92455900  0.33044600  0.03681500  1
  O  O60  1  0.65145200  0.33894800  0.03840900  1
  O  O61  1  0.17597200  0.38726300  0.79427700  1
  O  O62  1  0.91268800  0.38940600  0.79486900  1
  O  O63  1  0.90712600  0.38312900  0.65626300  1
  O  O64  1  0.90712600  0.61687100  0.15626300  1
  O  O65  1  0.17597200  0.61273700  0.29427700  1
  O  O66  1  0.91268800  0.61059400  0.29486900  1
  O  O67  1  0.92455900  0.66955400  0.53681500  1
  O  O68  1  0.65145200  0.66105200  0.53840900  1
  O  O69  1  0.41071000  0.66513000  0.92600400  1
  O  O70  1  0.93669000  0.66962600  0.92632100  1
  O  O71  1  0.66314600  0.67149200  0.78567200  1
  O  O72  1  0.40740800  0.67493500  0.78438600  1
  O  O73  1  0.25426200  0.68224600  0.00493700  1
  O  O74  1  0.51021600  0.68836400  0.62434800  1
  O  O75  1  0.23864200  0.68621000  0.62441000  1
