# generated using pymatgen
data_Li3V2(O2F)2
_symmetry_space_group_name_H-M   'P 1'
_cell_length_a   10.39567000
_cell_length_b   5.96785600
_cell_length_c   14.88106678
_cell_angle_alpha   90.00000000
_cell_angle_beta   90.39731015
_cell_angle_gamma   90.00000000
_symmetry_Int_Tables_number   1
_chemical_formula_structural   Li3V2(O2F)2
_chemical_formula_sum   'Li24 V16 O32 F16'
_cell_volume   923.19712662
_cell_formula_units_Z   8
loop_
 _symmetry_equiv_pos_site_id
 _symmetry_equiv_pos_as_xyz
  1  'x, y, z'
loop_
 _atom_site_type_symbol
 _atom_site_label
 _atom_site_symmetry_multiplicity
 _atom_site_fract_x
 _atom_site_fract_y
 _atom_site_fract_z
 _atom_site_occupancy
  Li  Li0  1  0.58935500  0.28705000  0.16981200  1
  Li  Li1  1  0.58601800  0.25364600  0.66719400  1
  Li  Li2  1  0.99667000  0.50000000  0.04610900  1
  Li  Li3  1  0.58935500  0.71295000  0.16981200  1
  Li  Li4  1  0.58601800  0.74635400  0.66719400  1
  Li  Li5  1  0.66694700  0.00000000  0.30952100  1
  Li  Li6  1  0.83771100  0.00000000  0.15990100  1
  Li  Li7  1  0.83346100  0.00000000  0.66591900  1
  Li  Li8  1  0.75808250  0.73482150  0.03710300  1
  Li  Li9  1  0.75808250  0.26517850  0.03710300  1
  Li  Li10  1  0.90148450  0.73403450  0.28895300  1
  Li  Li11  1  0.90148450  0.26596550  0.28895300  1
  Li  Li12  1  0.08935500  0.78705000  0.16981200  1
  Li  Li13  1  0.08601800  0.75364600  0.66719400  1
  Li  Li14  1  0.49667000  0.00000000  0.04610900  1
  Li  Li15  1  0.08935500  0.21295000  0.16981200  1
  Li  Li16  1  0.08601800  0.24635400  0.66719400  1
  Li  Li17  1  0.16694700  0.50000000  0.30952100  1
  Li  Li18  1  0.33771100  0.50000000  0.15990100  1
  Li  Li19  1  0.33346100  0.50000000  0.66591900  1
  Li  Li20  1  0.25808250  0.23482150  0.03710300  1
  Li  Li21  1  0.25808250  0.76517850  0.03710300  1
  Li  Li22  1  0.40148450  0.23403450  0.28895300  1
  Li  Li23  1  0.40148450  0.76596550  0.28895300  1
  V  V24  1  0.99586700  0.50000000  0.50488000  1
  V  V25  1  0.50266300  0.50000000  0.49111500  1
  V  V26  1  0.66669400  0.00000000  0.83649000  1
  V  V27  1  0.74978950  0.74761650  0.50253300  1
  V  V28  1  0.67050000  0.50000000  0.83322100  1
  V  V29  1  0.74978950  0.25238350  0.50253300  1
  V  V30  1  0.91763800  0.75066400  0.83099500  1
  V  V31  1  0.91763800  0.24933600  0.83099500  1
  V  V32  1  0.49586700  0.00000000  0.50488000  1
  V  V33  1  0.00266300  0.00000000  0.49111500  1
  V  V34  1  0.16669400  0.50000000  0.83649000  1
  V  V35  1  0.24978950  0.24761650  0.50253300  1
  V  V36  1  0.17050000  0.00000000  0.83322100  1
  V  V37  1  0.24978950  0.75238350  0.50253300  1
  V  V38  1  0.41763800  0.25066400  0.83099500  1
  V  V39  1  0.41763800  0.74933600  0.83099500  1
  O  O40  1  0.58851450  0.24629450  0.89880700  1
  O  O41  1  0.57681300  0.24209200  0.43470200  1
  O  O42  1  0.50450200  0.00000000  0.76066900  1
  O  O43  1  0.57681300  0.75790800  0.43470200  1
  O  O44  1  0.58851450  0.75370550  0.89880700  1
  O  O45  1  0.51073900  0.50000000  0.75643100  1
  O  O46  1  0.66600200  0.00000000  0.57775400  1
  O  O47  1  0.83363600  0.00000000  0.89640100  1
  O  O48  1  0.83283200  0.00000000  0.43478400  1
  O  O49  1  0.74565850  0.76031850  0.75917000  1
  O  O50  1  0.65769400  0.50000000  0.57226400  1
  O  O51  1  0.83655000  0.50000000  0.43546600  1
  O  O52  1  0.82308200  0.50000000  0.89981400  1
  O  O53  1  0.74565850  0.23968150  0.75917000  1
  O  O54  1  0.92484900  0.75828400  0.57286500  1
  O  O55  1  0.92484900  0.24171600  0.57286500  1
  O  O56  1  0.08851450  0.74629450  0.89880700  1
  O  O57  1  0.07681300  0.74209200  0.43470200  1
  O  O58  1  0.00450200  0.50000000  0.76066900  1
  O  O59  1  0.07681300  0.25790800  0.43470200  1
  O  O60  1  0.08851450  0.25370550  0.89880700  1
  O  O61  1  0.01073900  0.00000000  0.75643100  1
  O  O62  1  0.16600200  0.50000000  0.57775400  1
  O  O63  1  0.33363600  0.50000000  0.89640100  1
  O  O64  1  0.33283200  0.50000000  0.43478400  1
  O  O65  1  0.24565850  0.26031850  0.75917000  1
  O  O66  1  0.15769400  0.00000000  0.57226400  1
  O  O67  1  0.33655000  0.00000000  0.43546600  1
  O  O68  1  0.32308200  0.00000000  0.89981400  1
  O  O69  1  0.24565850  0.73968150  0.75917000  1
  O  O70  1  0.42484900  0.25828400  0.57286500  1
  O  O71  1  0.42484900  0.74171600  0.57286500  1
  F  F72  1  0.50558000  0.00000000  0.25731600  1
  F  F73  1  0.98591400  0.00000000  0.24655300  1
  F  F74  1  0.67254800  0.00000000  0.07608200  1
  F  F75  1  0.74159450  0.77433350  0.24382700  1
  F  F76  1  0.66625100  0.50000000  0.08443200  1
  F  F77  1  0.74159450  0.22566650  0.24382700  1
  F  F78  1  0.92062650  0.75307850  0.08814600  1
  F  F79  1  0.92062650  0.24692150  0.08814600  1
  F  F80  1  0.00558000  0.50000000  0.25731600  1
  F  F81  1  0.48591400  0.50000000  0.24655300  1
  F  F82  1  0.17254800  0.50000000  0.07608200  1
  F  F83  1  0.24159450  0.27433350  0.24382700  1
  F  F84  1  0.16625100  0.00000000  0.08443200  1
  F  F85  1  0.24159450  0.72566650  0.24382700  1
  F  F86  1  0.42062650  0.25307850  0.08814600  1
  F  F87  1  0.42062650  0.74692150  0.08814600  1
