# generated using pymatgen
data_LiSnP2O7
_symmetry_space_group_name_H-M   'P 1'
_cell_length_a   5.06898100
_cell_length_b   8.95088200
_cell_length_c   7.19523126
_cell_angle_alpha   90.00000000
_cell_angle_beta   109.13039491
_cell_angle_gamma   90.00000000
_symmetry_Int_Tables_number   1
_chemical_formula_structural   LiSnP2O7
_chemical_formula_sum   'Li2 Sn2 P4 O14'
_cell_volume   308.43221557
_cell_formula_units_Z   2
loop_
 _symmetry_equiv_pos_site_id
 _symmetry_equiv_pos_as_xyz
  1  'x, y, z'
loop_
 _atom_site_type_symbol
 _atom_site_label
 _atom_site_symmetry_multiplicity
 _atom_site_fract_x
 _atom_site_fract_y
 _atom_site_fract_z
 _atom_site_occupancy
  Li  Li0  1  0.20205900  0.79412900  0.66214100  1
  Li  Li1  1  0.79794100  0.29412900  0.33785900  1
  Sn  Sn2  1  0.21422800  0.44068000  0.73366600  1
  Sn  Sn3  1  0.78577200  0.94068000  0.26633400  1
  P  P4  1  0.39605600  0.12487600  0.53557600  1
  P  P5  1  0.21123000  0.73220400  0.07675100  1
  P  P6  1  0.78877000  0.23220400  0.92324900  1
  P  P7  1  0.60394400  0.62487600  0.46442400  1
  O  O8  1  0.05027600  0.25834300  0.86735500  1
  O  O9  1  0.14726300  0.65387300  0.87623100  1
  O  O10  1  0.22232900  0.98051900  0.50729600  1
  O  O11  1  0.21695100  0.26813300  0.50744800  1
  O  O12  1  0.41210900  0.63073100  0.59071900  1
  O  O13  1  0.62509100  0.37673700  0.92703800  1
  O  O14  1  0.58802300  0.11643000  0.76580300  1
  O  O15  1  0.41197700  0.61643000  0.23419700  1
  O  O16  1  0.37490900  0.87673700  0.07296200  1
  O  O17  1  0.58789100  0.13073100  0.40928100  1
  O  O18  1  0.78304900  0.76813300  0.49255200  1
  O  O19  1  0.77767100  0.48051900  0.49270400  1
  O  O20  1  0.85273700  0.15387300  0.12376900  1
  O  O21  1  0.94972400  0.75834300  0.13264500  1
