# generated using pymatgen
data_Li10V5Cr3O16
_symmetry_space_group_name_H-M   'P 1'
_cell_length_a   10.48161600
_cell_length_b   5.98977600
_cell_length_c   9.91802606
_cell_angle_alpha   90.00000000
_cell_angle_beta   90.63549885
_cell_angle_gamma   90.00000000
_symmetry_Int_Tables_number   1
_chemical_formula_structural   Li10V5Cr3O16
_chemical_formula_sum   'Li20 V10 Cr6 O32'
_cell_volume   622.64048696
_cell_formula_units_Z   2
loop_
 _symmetry_equiv_pos_site_id
 _symmetry_equiv_pos_as_xyz
  1  'x, y, z'
loop_
 _atom_site_type_symbol
 _atom_site_label
 _atom_site_symmetry_multiplicity
 _atom_site_fract_x
 _atom_site_fract_y
 _atom_site_fract_z
 _atom_site_occupancy
  Li  Li0  1  0.69855100  0.50000000  0.54197800  1
  Li  Li1  1  0.50635800  0.50000000  0.47227700  1
  Li  Li2  1  0.90057650  0.29251550  0.54702200  1
  Li  Li3  1  0.83361400  0.50000000  0.76053200  1
  Li  Li4  1  0.90057650  0.70748450  0.54702200  1
  Li  Li5  1  0.60205100  0.79428200  0.04267400  1
  Li  Li6  1  0.60205100  0.20571800  0.04267400  1
  Li  Li7  1  0.67164100  0.00000000  0.26125800  1
  Li  Li8  1  0.80342900  0.00000000  0.04452100  1
  Li  Li9  1  0.50002200  0.50000000  0.97293400  1
  Li  Li10  1  0.19855100  0.00000000  0.54197800  1
  Li  Li11  1  0.00635800  0.00000000  0.47227700  1
  Li  Li12  1  0.40057650  0.79251550  0.54702200  1
  Li  Li13  1  0.33361400  0.00000000  0.76053200  1
  Li  Li14  1  0.40057650  0.20748450  0.54702200  1
  Li  Li15  1  0.10205100  0.29428200  0.04267400  1
  Li  Li16  1  0.10205100  0.70571800  0.04267400  1
  Li  Li17  1  0.17164100  0.50000000  0.26125800  1
  Li  Li18  1  0.30342900  0.50000000  0.04452100  1
  Li  Li19  1  0.00002200  0.00000000  0.97293400  1
  V  V20  1  0.91955550  0.74708550  0.27125800  1
  V  V21  1  0.83534500  0.50000000  0.01311800  1
  V  V22  1  0.91955550  0.25291450  0.27125800  1
  V  V23  1  0.67057800  0.00000000  0.51412900  1
  V  V24  1  0.83129800  0.00000000  0.77079900  1
  V  V25  1  0.41955550  0.24708550  0.27125800  1
  V  V26  1  0.33534500  0.00000000  0.01311800  1
  V  V27  1  0.41955550  0.75291450  0.27125800  1
  V  V28  1  0.17057800  0.50000000  0.51412900  1
  V  V29  1  0.33129800  0.50000000  0.77079900  1
  Cr  Cr30  1  0.67099700  0.50000000  0.27253500  1
  Cr  Cr31  1  0.58354350  0.75266350  0.77255200  1
  Cr  Cr32  1  0.58354350  0.24733650  0.77255200  1
  Cr  Cr33  1  0.17099700  0.00000000  0.27253500  1
  Cr  Cr34  1  0.08354350  0.25266350  0.77255200  1
  Cr  Cr35  1  0.08354350  0.74733650  0.77255200  1
  O  O36  1  0.65884900  0.50000000  0.89093400  1
  O  O37  1  0.75501300  0.26124700  0.15464400  1
  O  O38  1  0.91964300  0.24139500  0.88641900  1
  O  O39  1  0.50541100  0.50000000  0.15909500  1
  O  O40  1  0.83350200  0.50000000  0.39094300  1
  O  O41  1  0.75501300  0.73875300  0.15464400  1
  O  O42  1  0.99606900  0.50000000  0.15484100  1
  O  O43  1  0.58555700  0.74018400  0.38856500  1
  O  O44  1  0.91964300  0.75860500  0.88641900  1
  O  O45  1  0.50952500  0.00000000  0.65405400  1
  O  O46  1  0.58555700  0.25981600  0.38856500  1
  O  O47  1  0.74532900  0.75828700  0.65707900  1
  O  O48  1  0.66331000  0.00000000  0.88908500  1
  O  O49  1  0.74532900  0.24171300  0.65707900  1
  O  O50  1  0.84587600  0.00000000  0.39098800  1
  O  O51  1  0.50237300  0.50000000  0.65956400  1
  O  O52  1  0.15884900  0.00000000  0.89093400  1
  O  O53  1  0.25501300  0.76124700  0.15464400  1
  O  O54  1  0.41964300  0.74139500  0.88641900  1
  O  O55  1  0.00541100  0.00000000  0.15909500  1
  O  O56  1  0.33350200  0.00000000  0.39094300  1
  O  O57  1  0.25501300  0.23875300  0.15464400  1
  O  O58  1  0.49606900  0.00000000  0.15484100  1
  O  O59  1  0.08555700  0.24018400  0.38856500  1
  O  O60  1  0.41964300  0.25860500  0.88641900  1
  O  O61  1  0.00952500  0.50000000  0.65405400  1
  O  O62  1  0.08555700  0.75981600  0.38856500  1
  O  O63  1  0.24532900  0.25828700  0.65707900  1
  O  O64  1  0.16331000  0.50000000  0.88908500  1
  O  O65  1  0.24532900  0.74171300  0.65707900  1
  O  O66  1  0.34587600  0.50000000  0.39098800  1
  O  O67  1  0.00237300  0.00000000  0.65956400  1
