# generated using pymatgen
data_LiNiPO4
_symmetry_space_group_name_H-M   'P 1'
_cell_length_a   5.96650352
_cell_length_b   6.37648617
_cell_length_c   9.35475522
_cell_angle_alpha   73.91739462
_cell_angle_beta   84.31463682
_cell_angle_gamma   80.10125337
_symmetry_Int_Tables_number   1
_chemical_formula_structural   LiNiPO4
_chemical_formula_sum   'Li4 Ni4 P4 O16'
_cell_volume   336.38693350
_cell_formula_units_Z   4
loop_
 _symmetry_equiv_pos_site_id
 _symmetry_equiv_pos_as_xyz
  1  'x, y, z'
loop_
 _atom_site_type_symbol
 _atom_site_label
 _atom_site_symmetry_multiplicity
 _atom_site_fract_x
 _atom_site_fract_y
 _atom_site_fract_z
 _atom_site_occupancy
  Li  Li0  1  0.59603000  0.82960300  0.73230000  1
  Li  Li1  1  0.40397000  0.17039700  0.26770000  1
  Li  Li2  1  0.43112100  0.66061200  0.32950700  1
  Li  Li3  1  0.56887900  0.33938800  0.67049300  1
  Ni  Ni4  1  0.01360600  0.07683700  0.71554300  1
  Ni  Ni5  1  0.80462900  0.64506400  0.06694300  1
  Ni  Ni6  1  0.98639400  0.92316300  0.28445700  1
  Ni  Ni7  1  0.19537100  0.35493600  0.93305700  1
  P  P8  1  0.16119200  0.71680800  0.62073200  1
  P  P9  1  0.83880800  0.28319200  0.37926800  1
  P  P10  1  0.28497000  0.81834600  0.00096500  1
  P  P11  1  0.71503000  0.18165400  0.99903500  1
  O  O12  1  0.53031000  0.74149300  0.94886300  1
  O  O13  1  0.46969000  0.25850700  0.05113700  1
  O  O14  1  0.30495500  0.89299300  0.63415000  1
  O  O15  1  0.69504500  0.10700700  0.36585000  1
  O  O16  1  0.91898200  0.78964000  0.68519300  1
  O  O17  1  0.08101800  0.21036000  0.31480700  1
  O  O18  1  0.80301400  0.95147400  0.10554200  1
  O  O19  1  0.19698600  0.04852600  0.89445800  1
  O  O20  1  0.13155000  0.64917200  0.98996900  1
  O  O21  1  0.86845000  0.35082800  0.01003100  1
  O  O22  1  0.16234400  0.71080100  0.45580600  1
  O  O23  1  0.83765600  0.28919900  0.54419400  1
  O  O24  1  0.27463500  0.83407800  0.16376900  1
  O  O25  1  0.72536500  0.16592200  0.83623100  1
  O  O26  1  0.72988600  0.51914700  0.28983000  1
  O  O27  1  0.27011400  0.48085300  0.71017000  1
