# generated using pymatgen
data_LiVBO4
_symmetry_space_group_name_H-M   'P 1'
_cell_length_a   13.24296016
_cell_length_b   13.24296016
_cell_length_c   8.92915888
_cell_angle_alpha   90.00000000
_cell_angle_beta   90.00000000
_cell_angle_gamma   120.00000000
_symmetry_Int_Tables_number   1
_chemical_formula_structural   LiVBO4
_chemical_formula_sum   'Li18 V18 B18 O72'
_cell_volume   1356.16123971
_cell_formula_units_Z   18
loop_
 _symmetry_equiv_pos_site_id
 _symmetry_equiv_pos_as_xyz
  1  'x, y, z'
loop_
 _atom_site_type_symbol
 _atom_site_label
 _atom_site_symmetry_multiplicity
 _atom_site_fract_x
 _atom_site_fract_y
 _atom_site_fract_z
 _atom_site_occupancy
  Li  Li0  1  0.20244867  0.00898633  0.25098133  1
  Li  Li1  1  0.02221233  0.81143867  0.75624267  1
  Li  Li2  1  0.18856133  0.21077367  0.75624267  1
  Li  Li3  1  0.80653767  0.79755133  0.25098133  1
  Li  Li4  1  0.99101367  0.19346233  0.25098133  1
  Li  Li5  1  0.78922633  0.97778767  0.75624267  1
  Li  Li6  1  0.86911533  0.34231967  0.58431467  1
  Li  Li7  1  0.68887900  0.14477200  0.08957600  1
  Li  Li8  1  0.85522800  0.54410700  0.08957600  1
  Li  Li9  1  0.47320433  0.13088467  0.58431467  1
  Li  Li10  1  0.65768033  0.52679567  0.58431467  1
  Li  Li11  1  0.45589300  0.31112100  0.08957600  1
  Li  Li12  1  0.53578200  0.67565300  0.91764800  1
  Li  Li13  1  0.35554567  0.47810533  0.42290933  1
  Li  Li14  1  0.52189467  0.87744033  0.42290933  1
  Li  Li15  1  0.13987100  0.46421800  0.91764800  1
  Li  Li16  1  0.32434700  0.86012900  0.91764800  1
  Li  Li17  1  0.12255967  0.64445433  0.42290933  1
  V  V18  1  0.31283033  0.86193667  0.58267567  1
  V  V19  1  0.00907700  0.80290600  0.41741000  1
  V  V20  1  0.19709400  0.20617100  0.41741000  1
  V  V21  1  0.13806333  0.45089367  0.58267567  1
  V  V22  1  0.79382900  0.99092300  0.41741000  1
  V  V23  1  0.54910633  0.68716967  0.58267567  1
  V  V24  1  0.97949700  0.19527000  0.91600900  1
  V  V25  1  0.67574367  0.13623933  0.75074333  1
  V  V26  1  0.86376067  0.53950433  0.75074333  1
  V  V27  1  0.80473000  0.78422700  0.91600900  1
  V  V28  1  0.46049567  0.32425633  0.75074333  1
  V  V29  1  0.21577300  0.02050300  0.91600900  1
  V  V30  1  0.64616367  0.52860333  0.24934233  1
  V  V31  1  0.34241033  0.46957267  0.08407667  1
  V  V32  1  0.53042733  0.87283767  0.08407667  1
  V  V33  1  0.47139667  0.11756033  0.24934233  1
  V  V34  1  0.12716233  0.65758967  0.08407667  1
  V  V35  1  0.88243967  0.35383633  0.24934233  1
  B  B36  1  0.45591467  0.31952933  0.41547033  1
  B  B37  1  0.20522933  0.00747467  0.58111767  1
  B  B38  1  0.86361467  0.54408533  0.41547033  1
  B  B39  1  0.80224533  0.79477067  0.58111767  1
  B  B40  1  0.99252533  0.19775467  0.58111767  1
  B  B41  1  0.68047067  0.13638533  0.41547033  1
  B  B42  1  0.12258133  0.65286267  0.74880367  1
  B  B43  1  0.87189600  0.34080800  0.91445100  1
  B  B44  1  0.53028133  0.87741867  0.74880367  1
  B  B45  1  0.46891200  0.12810400  0.91445100  1
  B  B46  1  0.65919200  0.53108800  0.91445100  1
  B  B47  1  0.34713733  0.46971867  0.74880367  1
  B  B48  1  0.78924800  0.98619600  0.08213700  1
  B  B49  1  0.53856267  0.67414133  0.24778433  1
  B  B50  1  0.19694800  0.21075200  0.08213700  1
  B  B51  1  0.13557867  0.46143733  0.24778433  1
  B  B52  1  0.32585867  0.86442133  0.24778433  1
  B  B53  1  0.01380400  0.80305200  0.08213700  1
  O  O54  1  0.22245667  0.77506433  0.73779733  1
  O  O55  1  0.46061733  0.24831367  0.28921567  1
  O  O56  1  0.31408767  0.00075633  0.57689533  1
  O  O57  1  0.20152967  0.06446633  0.72430133  1
  O  O58  1  0.19614300  0.06963600  0.44984000  1
  O  O59  1  0.34651467  0.32609133  0.40905433  1
  O  O60  1  0.97957667  0.65348533  0.40905433  1
  O  O61  1  0.10501000  0.88472200  0.57286800  1
  O  O62  1  0.06177067  0.85841033  0.22859533  1
  O  O63  1  0.14158967  0.20336033  0.22859533  1
  O  O64  1  0.11527800  0.22028800  0.57286800  1
  O  O65  1  0.78769633  0.53938267  0.28921567  1
  O  O66  1  0.87349300  0.80385700  0.44984000  1
  O  O67  1  0.22493567  0.44739233  0.73779733  1
  O  O68  1  0.86293667  0.79847033  0.72430133  1
  O  O69  1  0.93553367  0.13706333  0.72430133  1
  O  O70  1  0.99924367  0.31333133  0.57689533  1
  O  O71  1  0.93036400  0.12650700  0.44984000  1
  O  O72  1  0.77971200  0.89499000  0.57286800  1
  O  O73  1  0.79663967  0.93822933  0.22859533  1
  O  O74  1  0.68666867  0.68591233  0.57689533  1
  O  O75  1  0.67390867  0.02042333  0.40905433  1
  O  O76  1  0.55260767  0.77754333  0.73779733  1
  O  O77  1  0.75168633  0.21230367  0.28921567  1
  O  O78  1  0.88912333  0.10839767  0.07113067  1
  O  O79  1  0.12728400  0.58164700  0.62254900  1
  O  O80  1  0.98075433  0.33408967  0.91022867  1
  O  O81  1  0.86819633  0.39779967  0.05763467  1
  O  O82  1  0.86280967  0.40296933  0.78317333  1
  O  O83  1  0.01318133  0.65942467  0.74238767  1
  O  O84  1  0.64624333  0.98681867  0.74238767  1
  O  O85  1  0.77167667  0.21805533  0.90620133  1
  O  O86  1  0.72843733  0.19174367  0.56192867  1
  O  O87  1  0.80825633  0.53669367  0.56192867  1
  O  O88  1  0.78194467  0.55362133  0.90620133  1
  O  O89  1  0.45436300  0.87271600  0.62254900  1
  O  O90  1  0.54015967  0.13719033  0.78317333  1
  O  O91  1  0.89160233  0.78072567  0.07113067  1
  O  O92  1  0.52960333  0.13180367  0.05763467  1
  O  O93  1  0.60220033  0.47039667  0.05763467  1
  O  O94  1  0.66591033  0.64666467  0.91022867  1
  O  O95  1  0.59703067  0.45984033  0.78317333  1
  O  O96  1  0.44637867  0.22832333  0.90620133  1
  O  O97  1  0.46330633  0.27156267  0.56192867  1
  O  O98  1  0.35333533  0.01924567  0.91022867  1
  O  O99  1  0.34057533  0.35375667  0.74238767  1
  O  O100  1  0.21927433  0.11087667  0.07113067  1
  O  O101  1  0.41835300  0.54563700  0.62254900  1
  O  O102  1  0.55579000  0.44173100  0.40446400  1
  O  O103  1  0.79395067  0.91498033  0.95588233  1
  O  O104  1  0.64742100  0.66742300  0.24356200  1
  O  O105  1  0.53486300  0.73113300  0.39096800  1
  O  O106  1  0.52947633  0.73630267  0.11650667  1
  O  O107  1  0.67984800  0.99275800  0.07572100  1
  O  O108  1  0.31291000  0.32015200  0.07572100  1
  O  O109  1  0.43834333  0.55138867  0.23953467  1
  O  O110  1  0.39510400  0.52507700  0.89526200  1
  O  O111  1  0.47492300  0.87002700  0.89526200  1
  O  O112  1  0.44861133  0.88695467  0.23953467  1
  O  O113  1  0.12102967  0.20604933  0.95588233  1
  O  O114  1  0.20682633  0.47052367  0.11650667  1
  O  O115  1  0.55826900  0.11405900  0.40446400  1
  O  O116  1  0.19627000  0.46513700  0.39096800  1
  O  O117  1  0.26886700  0.80373000  0.39096800  1
  O  O118  1  0.33257700  0.97999800  0.24356200  1
  O  O119  1  0.26369733  0.79317367  0.11650667  1
  O  O120  1  0.11304533  0.56165667  0.23953467  1
  O  O121  1  0.12997300  0.60489600  0.89526200  1
  O  O122  1  0.02000200  0.35257900  0.24356200  1
  O  O123  1  0.00724200  0.68709000  0.07572100  1
  O  O124  1  0.88594100  0.44421000  0.40446400  1
  O  O125  1  0.08501967  0.87897033  0.95588233  1
