# generated using pymatgen
data_TiFe(PO4)2
_symmetry_space_group_name_H-M   'P 1'
_cell_length_a   8.70560428
_cell_length_b   8.70560428
_cell_length_c   20.64689863
_cell_angle_alpha   90.00000000
_cell_angle_beta   90.00000000
_cell_angle_gamma   120.00000000
_symmetry_Int_Tables_number   1
_chemical_formula_structural   TiFe(PO4)2
_chemical_formula_sum   'Ti9 Fe9 P18 O72'
_cell_volume   1355.13730671
_cell_formula_units_Z   9
loop_
 _symmetry_equiv_pos_site_id
 _symmetry_equiv_pos_as_xyz
  1  'x, y, z'
loop_
 _atom_site_type_symbol
 _atom_site_label
 _atom_site_symmetry_multiplicity
 _atom_site_fract_x
 _atom_site_fract_y
 _atom_site_fract_z
 _atom_site_occupancy
  Ti  Ti0  1  0.33333333  0.66666667  0.02347867  1
  Ti  Ti1  1  0.33333333  0.66666667  0.80801267  1
  Ti  Ti2  1  0.33333333  0.66666667  0.31074467  1
  Ti  Ti3  1  0.00000000  0.00000000  0.35681200  1
  Ti  Ti4  1  0.00000000  0.00000000  0.14134600  1
  Ti  Ti5  1  0.00000000  0.00000000  0.64407800  1
  Ti  Ti6  1  0.66666667  0.33333333  0.69014533  1
  Ti  Ti7  1  0.66666667  0.33333333  0.47467933  1
  Ti  Ti8  1  0.66666667  0.33333333  0.97741133  1
  Fe  Fe9  1  0.33333333  0.66666667  0.66333867  1
  Fe  Fe10  1  0.33333333  0.66666667  0.52456367  1
  Fe  Fe11  1  0.33333333  0.66666667  0.16553367  1
  Fe  Fe12  1  0.00000000  0.00000000  0.99667200  1
  Fe  Fe13  1  0.00000000  0.00000000  0.85789700  1
  Fe  Fe14  1  0.00000000  0.00000000  0.49886700  1
  Fe  Fe15  1  0.66666667  0.33333333  0.33000533  1
  Fe  Fe16  1  0.66666667  0.33333333  0.19123033  1
  Fe  Fe17  1  0.66666667  0.33333333  0.83220033  1
  P  P18  1  0.95893267  0.33182933  0.08495933  1
  P  P19  1  0.37289667  0.04106733  0.08495933  1
  P  P20  1  0.66817067  0.62710333  0.08495933  1
  P  P21  1  0.00219700  0.70892600  0.24982100  1
  P  P22  1  0.29107400  0.29327100  0.24982100  1
  P  P23  1  0.70672900  0.99780300  0.24982100  1
  P  P24  1  0.62559933  0.66516267  0.41829267  1
  P  P25  1  0.03956333  0.37440067  0.41829267  1
  P  P26  1  0.33483733  0.96043667  0.41829267  1
  P  P27  1  0.66886367  0.04225933  0.58315433  1
  P  P28  1  0.95774067  0.62660433  0.58315433  1
  P  P29  1  0.37339567  0.33113633  0.58315433  1
  P  P30  1  0.29226600  0.99849600  0.75162600  1
  P  P31  1  0.70623000  0.70773400  0.75162600  1
  P  P32  1  0.00150400  0.29377000  0.75162600  1
  P  P33  1  0.33553033  0.37559267  0.91648767  1
  P  P34  1  0.62440733  0.95993767  0.91648767  1
  P  P35  1  0.04006233  0.66446967  0.91648767  1
  O  O36  1  0.14717433  0.47701867  0.35679967  1
  O  O37  1  0.32984433  0.85282567  0.35679967  1
  O  O38  1  0.52298133  0.67015567  0.35679967  1
  O  O39  1  0.98198833  0.16580667  0.07467767  1
  O  O40  1  0.86631533  0.32952167  0.14637367  1
  O  O41  1  0.15173267  0.49690933  0.08845333  1
  O  O42  1  0.18381833  0.01801167  0.07467767  1
  O  O43  1  0.34517667  0.84826733  0.08845333  1
  O  O44  1  0.32943333  0.47535067  0.85514867  1
  O  O45  1  0.50309067  0.65482333  0.08845333  1
  O  O46  1  0.83795033  0.52631767  0.26009067  1
  O  O47  1  0.52464933  0.85408267  0.85514867  1
  O  O48  1  0.46320633  0.13368467  0.14637367  1
  O  O49  1  0.83419333  0.81618167  0.07467767  1
  O  O50  1  0.17076633  0.69003767  0.24198367  1
  O  O51  1  0.67047833  0.53679367  0.14637367  1
  O  O52  1  0.30996233  0.48072867  0.24198367  1
  O  O53  1  0.47368233  0.31163267  0.26009067  1
  O  O54  1  0.51927133  0.82923367  0.24198367  1
  O  O55  1  0.14591733  0.67056667  0.85514867  1
  O  O56  1  0.68836733  0.16204967  0.26009067  1
  O  O57  1  0.13717767  0.64698833  0.97646533  1
  O  O58  1  0.35301167  0.49018933  0.97646533  1
  O  O59  1  0.50981067  0.86282233  0.97646533  1
  O  O60  1  0.81384100  0.81035200  0.69013300  1
  O  O61  1  0.99651100  0.18615900  0.69013300  1
  O  O62  1  0.18964800  0.00348900  0.69013300  1
  O  O63  1  0.64865500  0.49914000  0.40801100  1
  O  O64  1  0.53298200  0.66285500  0.47970700  1
  O  O65  1  0.81839933  0.83024267  0.42178667  1
  O  O66  1  0.85048500  0.35134500  0.40801100  1
  O  O67  1  0.01184333  0.18160067  0.42178667  1
  O  O68  1  0.99610000  0.80868400  0.18848200  1
  O  O69  1  0.16975733  0.98815667  0.42178667  1
  O  O70  1  0.50461700  0.85965100  0.59342400  1
  O  O71  1  0.19131600  0.18741600  0.18848200  1
  O  O72  1  0.12987300  0.46701800  0.47970700  1
  O  O73  1  0.50086000  0.14951500  0.40801100  1
  O  O74  1  0.83743300  0.02337100  0.57531700  1
  O  O75  1  0.33714500  0.87012700  0.47970700  1
  O  O76  1  0.97662900  0.81406200  0.57531700  1
  O  O77  1  0.14034900  0.64496600  0.59342400  1
  O  O78  1  0.18593800  0.16256700  0.57531700  1
  O  O79  1  0.81258400  0.00390000  0.18848200  1
  O  O80  1  0.35503400  0.49538300  0.59342400  1
  O  O81  1  0.80384433  0.98032167  0.30979867  1
  O  O82  1  0.01967833  0.82352267  0.30979867  1
  O  O83  1  0.17647733  0.19615567  0.30979867  1
  O  O84  1  0.48050767  0.14368533  0.02346633  1
  O  O85  1  0.66317767  0.51949233  0.02346633  1
  O  O86  1  0.85631467  0.33682233  0.02346633  1
  O  O87  1  0.31532167  0.83247333  0.74134433  1
  O  O88  1  0.19964867  0.99618833  0.81304033  1
  O  O89  1  0.48506600  0.16357600  0.75512000  1
  O  O90  1  0.51715167  0.68467833  0.74134433  1
  O  O91  1  0.67851000  0.51493400  0.75512000  1
  O  O92  1  0.66276667  0.14201733  0.52181533  1
  O  O93  1  0.83642400  0.32149000  0.75512000  1
  O  O94  1  0.17128367  0.19298433  0.92675733  1
  O  O95  1  0.85798267  0.52074933  0.52181533  1
  O  O96  1  0.79653967  0.80035133  0.81304033  1
  O  O97  1  0.16752667  0.48284833  0.74134433  1
  O  O98  1  0.50409967  0.35670433  0.90865033  1
  O  O99  1  0.00381167  0.20346033  0.81304033  1
  O  O100  1  0.64329567  0.14739533  0.90865033  1
  O  O101  1  0.80701567  0.97829933  0.92675733  1
  O  O102  1  0.85260467  0.49590033  0.90865033  1
  O  O103  1  0.47925067  0.33723333  0.52181533  1
  O  O104  1  0.02170067  0.82871633  0.92675733  1
  O  O105  1  0.47051100  0.31365500  0.64313200  1
  O  O106  1  0.68634500  0.15685600  0.64313200  1
  O  O107  1  0.84314400  0.52948900  0.64313200  1
