# generated using pymatgen
data_LiFeO3
_symmetry_space_group_name_H-M   'P 1'
_cell_length_a   15.14361800
_cell_length_b   8.55843800
_cell_length_c   9.89540604
_cell_angle_alpha   90.00000000
_cell_angle_beta   98.78610264
_cell_angle_gamma   90.00000000
_symmetry_Int_Tables_number   1
_chemical_formula_structural   LiFeO3
_chemical_formula_sum   'Li24 Fe24 O72'
_cell_volume   1267.45162075
_cell_formula_units_Z   24
loop_
 _symmetry_equiv_pos_site_id
 _symmetry_equiv_pos_as_xyz
  1  'x, y, z'
loop_
 _atom_site_type_symbol
 _atom_site_label
 _atom_site_symmetry_multiplicity
 _atom_site_fract_x
 _atom_site_fract_y
 _atom_site_fract_z
 _atom_site_occupancy
  Li  Li0  1  0.83514100  0.84035700  0.50542900  1
  Li  Li1  1  0.86871000  0.00000000  0.95768900  1
  Li  Li2  1  0.72201700  0.00000000  0.07354500  1
  Li  Li3  1  0.83514100  0.15964300  0.50542900  1
  Li  Li4  1  0.64851000  0.00000000  0.52086100  1
  Li  Li5  1  0.53633100  0.00000000  0.95904700  1
  Li  Li6  1  0.93650400  0.50000000  0.43948000  1
  Li  Li7  1  0.88738300  0.50000000  0.06932800  1
  Li  Li8  1  0.70122800  0.50000000  0.96018800  1
  Li  Li9  1  0.72780900  0.50000000  0.56743300  1
  Li  Li10  1  0.55399500  0.50000000  0.07081200  1
  Li  Li11  1  0.51353100  0.50000000  0.48603900  1
  Li  Li12  1  0.33514100  0.34035700  0.50542900  1
  Li  Li13  1  0.36871000  0.50000000  0.95768900  1
  Li  Li14  1  0.22201700  0.50000000  0.07354500  1
  Li  Li15  1  0.33514100  0.65964300  0.50542900  1
  Li  Li16  1  0.14851000  0.50000000  0.52086100  1
  Li  Li17  1  0.03633100  0.50000000  0.95904700  1
  Li  Li18  1  0.43650400  0.00000000  0.43948000  1
  Li  Li19  1  0.38738300  0.00000000  0.06932800  1
  Li  Li20  1  0.20122800  0.00000000  0.96018800  1
  Li  Li21  1  0.22780900  0.00000000  0.56743300  1
  Li  Li22  1  0.05399500  0.00000000  0.07081200  1
  Li  Li23  1  0.01353100  0.00000000  0.48603900  1
  Fe  Fe24  1  0.74945250  0.83085150  0.75183100  1
  Fe  Fe25  1  0.58177300  0.67028900  0.74827500  1
  Fe  Fe26  1  0.91265450  0.16892450  0.25015700  1
  Fe  Fe27  1  0.58031850  0.82987750  0.25324300  1
  Fe  Fe28  1  0.74945250  0.16914850  0.75183100  1
  Fe  Fe29  1  0.91686550  0.33166150  0.75015700  1
  Fe  Fe30  1  0.58031850  0.17012250  0.25324300  1
  Fe  Fe31  1  0.74562600  0.33215000  0.25248900  1
  Fe  Fe32  1  0.91686550  0.66833850  0.75015700  1
  Fe  Fe33  1  0.58177300  0.32971100  0.74827500  1
  Fe  Fe34  1  0.91265450  0.83107550  0.25015700  1
  Fe  Fe35  1  0.74562600  0.66785000  0.25248900  1
  Fe  Fe36  1  0.24945250  0.33085150  0.75183100  1
  Fe  Fe37  1  0.08177300  0.17028900  0.74827500  1
  Fe  Fe38  1  0.41265450  0.66892450  0.25015700  1
  Fe  Fe39  1  0.08031850  0.32987750  0.25324300  1
  Fe  Fe40  1  0.24945250  0.66914850  0.75183100  1
  Fe  Fe41  1  0.41686550  0.83166150  0.75015700  1
  Fe  Fe42  1  0.08031850  0.67012250  0.25324300  1
  Fe  Fe43  1  0.24562600  0.83215000  0.25248900  1
  Fe  Fe44  1  0.41686550  0.16833850  0.75015700  1
  Fe  Fe45  1  0.08177300  0.82971100  0.74827500  1
  Fe  Fe46  1  0.41265450  0.33107550  0.25015700  1
  Fe  Fe47  1  0.24562600  0.16785000  0.25248900  1
  O  O48  1  0.79763050  0.81536250  0.14552300  1
  O  O49  1  0.94009500  0.00000000  0.13897500  1
  O  O50  1  0.63122300  0.68392700  0.14533200  1
  O  O51  1  0.69596750  0.81417050  0.35957900  1
  O  O52  1  0.88854100  0.00000000  0.36909200  1
  O  O53  1  0.52707700  0.68513400  0.35633000  1
  O  O54  1  0.63526050  0.81572550  0.64438500  1
  O  O55  1  0.77481000  0.00000000  0.63324500  1
  O  O56  1  0.96591650  0.18453950  0.64045300  1
  O  O57  1  0.96457100  0.31642300  0.14541100  1
  O  O58  1  0.72956700  0.00000000  0.86886800  1
  O  O59  1  0.53033650  0.81051550  0.85606900  1
  O  O60  1  0.60788300  0.00000000  0.14168000  1
  O  O61  1  0.79763050  0.18463750  0.14552300  1
  O  O62  1  0.86381650  0.18981350  0.85630000  1
  O  O63  1  0.55167100  0.00000000  0.36298400  1
  O  O64  1  0.86197500  0.31295700  0.36038200  1
  O  O65  1  0.69596750  0.18582950  0.35957900  1
  O  O66  1  0.80064550  0.31402150  0.64121700  1
  O  O67  1  0.63526050  0.18427450  0.64438500  1
  O  O68  1  0.94392900  0.50000000  0.64102700  1
  O  O69  1  0.63122300  0.31607300  0.14533200  1
  O  O70  1  0.69658300  0.31146900  0.85560000  1
  O  O71  1  0.89517300  0.50000000  0.86749200  1
  O  O72  1  0.96457100  0.68357700  0.14541100  1
  O  O73  1  0.77504500  0.50000000  0.14071000  1
  O  O74  1  0.53033650  0.18948450  0.85606900  1
  O  O75  1  0.52707700  0.31486600  0.35633000  1
  O  O76  1  0.71941700  0.50000000  0.36212800  1
  O  O77  1  0.86197500  0.68704300  0.36038200  1
  O  O78  1  0.96591650  0.81546050  0.64045300  1
  O  O79  1  0.61169300  0.50000000  0.63952100  1
  O  O80  1  0.80064550  0.68597850  0.64121700  1
  O  O81  1  0.86381650  0.81018650  0.85630000  1
  O  O82  1  0.56163300  0.50000000  0.86587100  1
  O  O83  1  0.69658300  0.68853100  0.85560000  1
  O  O84  1  0.29763050  0.31536250  0.14552300  1
  O  O85  1  0.44009500  0.50000000  0.13897500  1
  O  O86  1  0.13122300  0.18392700  0.14533200  1
  O  O87  1  0.19596750  0.31417050  0.35957900  1
  O  O88  1  0.38854100  0.50000000  0.36909200  1
  O  O89  1  0.02707700  0.18513400  0.35633000  1
  O  O90  1  0.13526050  0.31572550  0.64438500  1
  O  O91  1  0.27481000  0.50000000  0.63324500  1
  O  O92  1  0.46591650  0.68453950  0.64045300  1
  O  O93  1  0.46457100  0.81642300  0.14541100  1
  O  O94  1  0.22956700  0.50000000  0.86886800  1
  O  O95  1  0.03033650  0.31051550  0.85606900  1
  O  O96  1  0.10788300  0.50000000  0.14168000  1
  O  O97  1  0.29763050  0.68463750  0.14552300  1
  O  O98  1  0.36381650  0.68981350  0.85630000  1
  O  O99  1  0.05167100  0.50000000  0.36298400  1
  O  O100  1  0.36197500  0.81295700  0.36038200  1
  O  O101  1  0.19596750  0.68582950  0.35957900  1
  O  O102  1  0.30064550  0.81402150  0.64121700  1
  O  O103  1  0.13526050  0.68427450  0.64438500  1
  O  O104  1  0.44392900  0.00000000  0.64102700  1
  O  O105  1  0.13122300  0.81607300  0.14533200  1
  O  O106  1  0.19658300  0.81146900  0.85560000  1
  O  O107  1  0.39517300  0.00000000  0.86749200  1
  O  O108  1  0.46457100  0.18357700  0.14541100  1
  O  O109  1  0.27504500  0.00000000  0.14071000  1
  O  O110  1  0.03033650  0.68948450  0.85606900  1
  O  O111  1  0.02707700  0.81486600  0.35633000  1
  O  O112  1  0.21941700  0.00000000  0.36212800  1
  O  O113  1  0.36197500  0.18704300  0.36038200  1
  O  O114  1  0.46591650  0.31546050  0.64045300  1
  O  O115  1  0.11169300  0.00000000  0.63952100  1
  O  O116  1  0.30064550  0.18597850  0.64121700  1
  O  O117  1  0.36381650  0.31018650  0.85630000  1
  O  O118  1  0.06163300  0.00000000  0.86587100  1
  O  O119  1  0.19658300  0.18853100  0.85560000  1
