# generated using pymatgen
data_Li5Fe4P4O16F
_symmetry_space_group_name_H-M   'P 1'
_cell_length_a   11.12265400
_cell_length_b   11.12265400
_cell_length_c   5.34386800
_cell_angle_alpha   90.00000000
_cell_angle_beta   90.00000000
_cell_angle_gamma   90.00000000
_symmetry_Int_Tables_number   1
_chemical_formula_structural   Li5Fe4P4O16F
_chemical_formula_sum   'Li10 Fe8 P8 O32 F2'
_cell_volume   661.10825045
_cell_formula_units_Z   2
loop_
 _symmetry_equiv_pos_site_id
 _symmetry_equiv_pos_as_xyz
  1  'x, y, z'
loop_
 _atom_site_type_symbol
 _atom_site_label
 _atom_site_symmetry_multiplicity
 _atom_site_fract_x
 _atom_site_fract_y
 _atom_site_fract_z
 _atom_site_occupancy
  Li  Li0  1  0.00000000  0.00000000  0.50000000  1
  Li  Li1  1  0.44053600  0.88829200  0.44433900  1
  Li  Li2  1  0.61170800  0.94053600  0.05566100  1
  Li  Li3  1  0.38829200  0.05946400  0.05566100  1
  Li  Li4  1  0.55946400  0.11170800  0.44433900  1
  Li  Li5  1  0.50000000  0.50000000  0.00000000  1
  Li  Li6  1  0.94053600  0.38829200  0.94433900  1
  Li  Li7  1  0.11170800  0.44053600  0.55566100  1
  Li  Li8  1  0.88829200  0.55946400  0.55566100  1
  Li  Li9  1  0.05946400  0.61170800  0.94433900  1
  Fe  Fe10  1  0.61841400  0.66074900  0.53389600  1
  Fe  Fe11  1  0.16074900  0.88158600  0.96610400  1
  Fe  Fe12  1  0.83925100  0.11841400  0.96610400  1
  Fe  Fe13  1  0.38158600  0.33925100  0.53389600  1
  Fe  Fe14  1  0.11841400  0.16074900  0.03389600  1
  Fe  Fe15  1  0.66074900  0.38158600  0.46610400  1
  Fe  Fe16  1  0.33925100  0.61841400  0.46610400  1
  Fe  Fe17  1  0.88158600  0.83925100  0.03389600  1
  P  P18  1  0.40670700  0.75484800  0.96592300  1
  P  P19  1  0.74515200  0.90670700  0.53407700  1
  P  P20  1  0.25484800  0.09329300  0.53407700  1
  P  P21  1  0.59329300  0.24515200  0.96592300  1
  P  P22  1  0.90670700  0.25484800  0.46592300  1
  P  P23  1  0.24515200  0.40670700  0.03407700  1
  P  P24  1  0.75484800  0.59329300  0.03407700  1
  P  P25  1  0.09329300  0.74515200  0.46592300  1
  O  O26  1  0.45861250  0.66274650  0.15727450  1
  O  O27  1  0.46030650  0.73145350  0.69413950  1
  O  O28  1  0.23880250  0.23009750  0.55537650  1
  O  O29  1  0.73009750  0.26119750  0.94462350  1
  O  O30  1  0.44031950  0.88358250  0.05133950  1
  O  O31  1  0.61641750  0.94031950  0.44866050  1
  O  O32  1  0.83725350  0.95861250  0.34272550  1
  O  O33  1  0.76854650  0.96030650  0.80586050  1
  O  O34  1  0.23145350  0.03969350  0.80586050  1
  O  O35  1  0.16274650  0.04138750  0.34272550  1
  O  O36  1  0.38358250  0.05968050  0.44866050  1
  O  O37  1  0.55968050  0.11641750  0.05133950  1
  O  O38  1  0.26990250  0.73880250  0.94462350  1
  O  O39  1  0.76119750  0.76990250  0.55537650  1
  O  O40  1  0.53969350  0.26854650  0.69413950  1
  O  O41  1  0.54138750  0.33725350  0.15727450  1
  O  O42  1  0.95861250  0.16274650  0.65727450  1
  O  O43  1  0.96030650  0.23145350  0.19413950  1
  O  O44  1  0.73880250  0.73009750  0.05537650  1
  O  O45  1  0.23009750  0.76119750  0.44462350  1
  O  O46  1  0.94031950  0.38358250  0.55133950  1
  O  O47  1  0.11641750  0.44031950  0.94866050  1
  O  O48  1  0.33725350  0.45861250  0.84272550  1
  O  O49  1  0.26854650  0.46030650  0.30586050  1
  O  O50  1  0.73145350  0.53969350  0.30586050  1
  O  O51  1  0.66274650  0.54138750  0.84272550  1
  O  O52  1  0.88358250  0.55968050  0.94866050  1
  O  O53  1  0.05968050  0.61641750  0.55133950  1
  O  O54  1  0.76990250  0.23880250  0.44462350  1
  O  O55  1  0.26119750  0.26990250  0.05537650  1
  O  O56  1  0.03969350  0.76854650  0.19413950  1
  O  O57  1  0.04138750  0.83725350  0.65727450  1
  F  F58  1  0.00000000  0.00000000  0.00000000  1
  F  F59  1  0.50000000  0.50000000  0.50000000  1
