# generated using pymatgen
data_Mn(AsO2)2
_symmetry_space_group_name_H-M   'P 1'
_cell_length_a   8.74864600
_cell_length_b   8.74864600
_cell_length_c   5.86965100
_cell_angle_alpha   90.00000000
_cell_angle_beta   90.00000000
_cell_angle_gamma   90.00000000
_symmetry_Int_Tables_number   1
_chemical_formula_structural   Mn(AsO2)2
_chemical_formula_sum   'Mn4 As8 O16'
_cell_volume   449.25608407
_cell_formula_units_Z   4
loop_
 _symmetry_equiv_pos_site_id
 _symmetry_equiv_pos_as_xyz
  1  'x, y, z'
loop_
 _atom_site_type_symbol
 _atom_site_label
 _atom_site_symmetry_multiplicity
 _atom_site_fract_x
 _atom_site_fract_y
 _atom_site_fract_z
 _atom_site_occupancy
  Mn  Mn0  1  0.00000000  0.50000000  0.75000000  1
  Mn  Mn1  1  0.50000000  0.00000000  0.75000000  1
  Mn  Mn2  1  0.00000000  0.50000000  0.25000000  1
  Mn  Mn3  1  0.50000000  0.00000000  0.25000000  1
  As  As4  1  0.30747700  0.67599400  0.50000000  1
  As  As5  1  0.67599400  0.69252300  0.00000000  1
  As  As6  1  0.17599400  0.80747700  0.00000000  1
  As  As7  1  0.80747700  0.82400600  0.50000000  1
  As  As8  1  0.19252300  0.17599400  0.50000000  1
  As  As9  1  0.82400600  0.19252300  0.00000000  1
  As  As10  1  0.32400600  0.30747700  0.00000000  1
  As  As11  1  0.69252300  0.32400600  0.50000000  1
  O  O12  1  0.14084200  0.60953300  0.00000000  1
  O  O13  1  0.10953300  0.64084200  0.50000000  1
  O  O14  1  0.60953300  0.85915800  0.50000000  1
  O  O15  1  0.64084200  0.89046700  0.00000000  1
  O  O16  1  0.35915800  0.10953300  0.00000000  1
  O  O17  1  0.39046700  0.14084200  0.50000000  1
  O  O18  1  0.89046700  0.35915800  0.50000000  1
  O  O19  1  0.85915800  0.39046700  0.00000000  1
  O  O20  1  0.81447900  0.68552100  0.25000000  1
  O  O21  1  0.81447900  0.68552100  0.75000000  1
  O  O22  1  0.31447900  0.81447900  0.25000000  1
  O  O23  1  0.31447900  0.81447900  0.75000000  1
  O  O24  1  0.68552100  0.18552100  0.25000000  1
  O  O25  1  0.68552100  0.18552100  0.75000000  1
  O  O26  1  0.18552100  0.31447900  0.25000000  1
  O  O27  1  0.18552100  0.31447900  0.75000000  1
