# generated using pymatgen
data_LiFe2(SO4)3
_symmetry_space_group_name_H-M   'P 1'
_cell_length_a   8.66835781
_cell_length_b   8.66835781
_cell_length_c   21.36485684
_cell_angle_alpha   90.00000000
_cell_angle_beta   90.00000000
_cell_angle_gamma   120.00000000
_symmetry_Int_Tables_number   1
_chemical_formula_structural   LiFe2(SO4)3
_chemical_formula_sum   'Li6 Fe12 S18 O72'
_cell_volume   1390.28641055
_cell_formula_units_Z   6
loop_
 _symmetry_equiv_pos_site_id
 _symmetry_equiv_pos_as_xyz
  1  'x, y, z'
loop_
 _atom_site_type_symbol
 _atom_site_label
 _atom_site_symmetry_multiplicity
 _atom_site_fract_x
 _atom_site_fract_y
 _atom_site_fract_z
 _atom_site_occupancy
  Li  Li0  1  0.00000000  0.00000000  0.00000000  1
  Li  Li1  1  0.33333333  0.66666667  0.16666667  1
  Li  Li2  1  0.66666667  0.33333333  0.33333333  1
  Li  Li3  1  0.00000000  0.00000000  0.50000000  1
  Li  Li4  1  0.33333333  0.66666667  0.66666667  1
  Li  Li5  1  0.66666667  0.33333333  0.83333333  1
  Fe  Fe6  1  0.33333333  0.66666667  0.02232467  1
  Fe  Fe7  1  0.00000000  0.00000000  0.14434200  1
  Fe  Fe8  1  0.33333333  0.66666667  0.31100867  1
  Fe  Fe9  1  0.66666667  0.33333333  0.18899133  1
  Fe  Fe10  1  0.00000000  0.00000000  0.35565800  1
  Fe  Fe11  1  0.66666667  0.33333333  0.47767533  1
  Fe  Fe12  1  0.00000000  0.00000000  0.64434200  1
  Fe  Fe13  1  0.33333333  0.66666667  0.52232467  1
  Fe  Fe14  1  0.66666667  0.33333333  0.68899133  1
  Fe  Fe15  1  0.33333333  0.66666667  0.81100867  1
  Fe  Fe16  1  0.66666667  0.33333333  0.97767533  1
  Fe  Fe17  1  0.00000000  0.00000000  0.85565800  1
  S  S18  1  0.96173367  0.33333333  0.08333333  1
  S  S19  1  0.29506700  0.29506700  0.25000000  1
  S  S20  1  0.00000000  0.70493300  0.25000000  1
  S  S21  1  0.66666667  0.62840033  0.08333333  1
  S  S22  1  0.37159967  0.03826633  0.08333333  1
  S  S23  1  0.70493300  0.00000000  0.25000000  1
  S  S24  1  0.62840033  0.66666667  0.41666667  1
  S  S25  1  0.96173367  0.62840033  0.58333333  1
  S  S26  1  0.66666667  0.03826633  0.58333333  1
  S  S27  1  0.33333333  0.96173367  0.41666667  1
  S  S28  1  0.03826633  0.37159967  0.41666667  1
  S  S29  1  0.37159967  0.33333333  0.58333333  1
  S  S30  1  0.29506700  0.00000000  0.75000000  1
  S  S31  1  0.62840033  0.96173367  0.91666667  1
  S  S32  1  0.33333333  0.37159967  0.91666667  1
  S  S33  1  0.00000000  0.29506700  0.75000000  1
  S  S34  1  0.70493300  0.70493300  0.75000000  1
  S  S35  1  0.03826633  0.66666667  0.91666667  1
  O  O36  1  0.98034133  0.17116367  0.07941167  1
  O  O37  1  0.83783033  0.52415567  0.25392167  1
  O  O38  1  0.46824900  0.13230600  0.02622300  1
  O  O39  1  0.46563933  0.13491567  0.14044367  1
  O  O40  1  0.14251100  0.49550300  0.08725500  1
  O  O41  1  0.31367467  0.47584433  0.24607833  1
  O  O42  1  0.47584433  0.31367467  0.25392167  1
  O  O43  1  0.80158233  0.00260967  0.19288967  1
  O  O44  1  0.00260967  0.80158233  0.30711033  1
  O  O45  1  0.79897267  0.99739033  0.30711033  1
  O  O46  1  0.99739033  0.79897267  0.19288967  1
  O  O47  1  0.16216967  0.68632533  0.24607833  1
  O  O48  1  0.50449700  0.64700800  0.08725500  1
  O  O49  1  0.86769400  0.33594300  0.02622300  1
  O  O50  1  0.66927633  0.53436067  0.14044367  1
  O  O51  1  0.86508433  0.33072367  0.14044367  1
  O  O52  1  0.66405700  0.53175100  0.02622300  1
  O  O53  1  0.19082233  0.01965867  0.07941167  1
  O  O54  1  0.35299200  0.85748900  0.08725500  1
  O  O55  1  0.52415567  0.83783033  0.24607833  1
  O  O56  1  0.19841767  0.20102733  0.30711033  1
  O  O57  1  0.20102733  0.19841767  0.19288967  1
  O  O58  1  0.82883633  0.80917767  0.07941167  1
  O  O59  1  0.68632533  0.16216967  0.25392167  1
  O  O60  1  0.64700800  0.50449700  0.41274500  1
  O  O61  1  0.50449700  0.85748900  0.58725500  1
  O  O62  1  0.13491567  0.46563933  0.35955633  1
  O  O63  1  0.13230600  0.46824900  0.47377700  1
  O  O64  1  0.80917767  0.82883633  0.42058833  1
  O  O65  1  0.98034133  0.80917767  0.57941167  1
  O  O66  1  0.14251100  0.64700800  0.58725500  1
  O  O67  1  0.46824900  0.33594300  0.52622300  1
  O  O68  1  0.66927633  0.13491567  0.64044367  1
  O  O69  1  0.46563933  0.33072367  0.64044367  1
  O  O70  1  0.66405700  0.13230600  0.52622300  1
  O  O71  1  0.82883633  0.01965867  0.57941167  1
  O  O72  1  0.17116367  0.98034133  0.42058833  1
  O  O73  1  0.53436067  0.66927633  0.35955633  1
  O  O74  1  0.33594300  0.86769400  0.47377700  1
  O  O75  1  0.53175100  0.66405700  0.47377700  1
  O  O76  1  0.33072367  0.86508433  0.35955633  1
  O  O77  1  0.85748900  0.35299200  0.41274500  1
  O  O78  1  0.01965867  0.19082233  0.42058833  1
  O  O79  1  0.19082233  0.17116367  0.57941167  1
  O  O80  1  0.86508433  0.53436067  0.64044367  1
  O  O81  1  0.86769400  0.53175100  0.52622300  1
  O  O82  1  0.49550300  0.14251100  0.41274500  1
  O  O83  1  0.35299200  0.49550300  0.58725500  1
  O  O84  1  0.31367467  0.83783033  0.74607833  1
  O  O85  1  0.17116367  0.19082233  0.92058833  1
  O  O86  1  0.80158233  0.79897267  0.69288967  1
  O  O87  1  0.79897267  0.80158233  0.80711033  1
  O  O88  1  0.47584433  0.16216967  0.75392167  1
  O  O89  1  0.64700800  0.14251100  0.91274500  1
  O  O90  1  0.80917767  0.98034133  0.92058833  1
  O  O91  1  0.13491567  0.66927633  0.85955633  1
  O  O92  1  0.33594300  0.46824900  0.97377700  1
  O  O93  1  0.13230600  0.66405700  0.97377700  1
  O  O94  1  0.33072367  0.46563933  0.85955633  1
  O  O95  1  0.49550300  0.35299200  0.91274500  1
  O  O96  1  0.83783033  0.31367467  0.75392167  1
  O  O97  1  0.20102733  0.00260967  0.69288967  1
  O  O98  1  0.00260967  0.20102733  0.80711033  1
  O  O99  1  0.19841767  0.99739033  0.80711033  1
  O  O100  1  0.99739033  0.19841767  0.69288967  1
  O  O101  1  0.52415567  0.68632533  0.74607833  1
  O  O102  1  0.68632533  0.52415567  0.75392167  1
  O  O103  1  0.85748900  0.50449700  0.91274500  1
  O  O104  1  0.53175100  0.86769400  0.97377700  1
  O  O105  1  0.53436067  0.86508433  0.85955633  1
  O  O106  1  0.16216967  0.47584433  0.74607833  1
  O  O107  1  0.01965867  0.82883633  0.92058833  1
