# generated using pymatgen
data_LiFe(PO3)4
_symmetry_space_group_name_H-M   'P 1'
_cell_length_a   15.07378800
_cell_length_b   8.02257800
_cell_length_c   9.16295075
_cell_angle_alpha   90.00000000
_cell_angle_beta   117.87635069
_cell_angle_gamma   90.00000000
_symmetry_Int_Tables_number   1
_chemical_formula_structural   LiFe(PO3)4
_chemical_formula_sum   'Li4 Fe4 P16 O48'
_cell_volume   979.49827677
_cell_formula_units_Z   4
loop_
 _symmetry_equiv_pos_site_id
 _symmetry_equiv_pos_as_xyz
  1  'x, y, z'
loop_
 _atom_site_type_symbol
 _atom_site_label
 _atom_site_symmetry_multiplicity
 _atom_site_fract_x
 _atom_site_fract_y
 _atom_site_fract_z
 _atom_site_occupancy
  Li  Li0  1  0.00000000  0.00000000  0.50000000  1
  Li  Li1  1  0.00000000  0.00000000  0.00000000  1
  Li  Li2  1  0.50000000  0.50000000  0.50000000  1
  Li  Li3  1  0.50000000  0.50000000  0.00000000  1
  Fe  Fe4  1  0.00000000  0.66300400  0.75000000  1
  Fe  Fe5  1  0.00000000  0.33699600  0.25000000  1
  Fe  Fe6  1  0.50000000  0.16300400  0.75000000  1
  Fe  Fe7  1  0.50000000  0.83699600  0.25000000  1
  P  P8  1  0.14052200  0.56500100  0.13737100  1
  P  P9  1  0.14954100  0.20164700  0.10438100  1
  P  P10  1  0.35045900  0.70164700  0.39561900  1
  P  P11  1  0.35947800  0.06500100  0.36262900  1
  P  P12  1  0.14052200  0.43499900  0.63737100  1
  P  P13  1  0.14954100  0.79835300  0.60438100  1
  P  P14  1  0.35045900  0.29835300  0.89561900  1
  P  P15  1  0.35947800  0.93499900  0.86262900  1
  P  P16  1  0.64052200  0.06500100  0.13737100  1
  P  P17  1  0.64954100  0.70164700  0.10438100  1
  P  P18  1  0.85045900  0.20164700  0.39561900  1
  P  P19  1  0.85947800  0.56500100  0.36262900  1
  P  P20  1  0.64052200  0.93499900  0.63737100  1
  P  P21  1  0.64954100  0.29835300  0.60438100  1
  P  P22  1  0.85045900  0.79835300  0.89561900  1
  P  P23  1  0.85947800  0.43499900  0.86262900  1
  O  O24  1  0.08941000  0.18480600  0.19984600  1
  O  O25  1  0.10565300  0.68510400  0.99411000  1
  O  O26  1  0.23910650  0.63443950  0.28576200  1
  O  O27  1  0.17539900  0.39402200  0.08804200  1
  O  O28  1  0.43178250  0.97292050  0.79718400  1
  O  O29  1  0.32460100  0.89402200  0.41195800  1
  O  O30  1  0.26089350  0.13443950  0.21423800  1
  O  O31  1  0.39837850  0.61356450  0.55696300  1
  O  O32  1  0.39434700  0.18510400  0.50589000  1
  O  O33  1  0.10162150  0.11356450  0.94303700  1
  O  O34  1  0.41059000  0.68480600  0.30015400  1
  O  O35  1  0.06821750  0.47292050  0.70281600  1
  O  O36  1  0.43178250  0.02707950  0.29718400  1
  O  O37  1  0.08941000  0.81519400  0.69984600  1
  O  O38  1  0.39837850  0.38643550  0.05696300  1
  O  O39  1  0.10565300  0.31489600  0.49411000  1
  O  O40  1  0.10162150  0.88643550  0.44303700  1
  O  O41  1  0.23910650  0.36556050  0.78576200  1
  O  O42  1  0.17539900  0.60597800  0.58804200  1
  O  O43  1  0.06821750  0.52707950  0.20281600  1
  O  O44  1  0.32460100  0.10597800  0.91195800  1
  O  O45  1  0.26089350  0.86556050  0.71423800  1
  O  O46  1  0.39434700  0.81489600  0.00589000  1
  O  O47  1  0.41059000  0.31519400  0.80015400  1
  O  O48  1  0.58941000  0.68480600  0.19984600  1
  O  O49  1  0.60565300  0.18510400  0.99411000  1
  O  O50  1  0.73910650  0.13443950  0.28576200  1
  O  O51  1  0.67539900  0.89402200  0.08804200  1
  O  O52  1  0.93178250  0.47292050  0.79718400  1
  O  O53  1  0.82460100  0.39402200  0.41195800  1
  O  O54  1  0.76089350  0.63443950  0.21423800  1
  O  O55  1  0.89837850  0.11356450  0.55696300  1
  O  O56  1  0.89434700  0.68510400  0.50589000  1
  O  O57  1  0.60162150  0.61356450  0.94303700  1
  O  O58  1  0.91059000  0.18480600  0.30015400  1
  O  O59  1  0.56821750  0.97292050  0.70281600  1
  O  O60  1  0.93178250  0.52707950  0.29718400  1
  O  O61  1  0.58941000  0.31519400  0.69984600  1
  O  O62  1  0.89837850  0.88643550  0.05696300  1
  O  O63  1  0.60565300  0.81489600  0.49411000  1
  O  O64  1  0.60162150  0.38643550  0.44303700  1
  O  O65  1  0.73910650  0.86556050  0.78576200  1
  O  O66  1  0.67539900  0.10597800  0.58804200  1
  O  O67  1  0.56821750  0.02707950  0.20281600  1
  O  O68  1  0.82460100  0.60597800  0.91195800  1
  O  O69  1  0.76089350  0.36556050  0.71423800  1
  O  O70  1  0.89434700  0.31489600  0.00589000  1
  O  O71  1  0.91059000  0.81519400  0.80015400  1
