# generated using pymatgen
data_Li3MnV(PO4)3
_symmetry_space_group_name_H-M   'P 1'
_cell_length_a   8.54316826
_cell_length_b   8.54316826
_cell_length_c   22.72190654
_cell_angle_alpha   90.00000000
_cell_angle_beta   90.00000000
_cell_angle_gamma   120.00000000
_symmetry_Int_Tables_number   1
_chemical_formula_structural   Li3MnV(PO4)3
_chemical_formula_sum   'Li18 Mn6 V6 P18 O72'
_cell_volume   1436.19470345
_cell_formula_units_Z   6
loop_
 _symmetry_equiv_pos_site_id
 _symmetry_equiv_pos_as_xyz
  1  'x, y, z'
loop_
 _atom_site_type_symbol
 _atom_site_label
 _atom_site_symmetry_multiplicity
 _atom_site_fract_x
 _atom_site_fract_y
 _atom_site_fract_z
 _atom_site_occupancy
  Li  Li0  1  0.28557567  0.32053133  0.04912933  1
  Li  Li1  1  0.67946867  0.96504433  0.04912933  1
  Li  Li2  1  0.03495567  0.71442433  0.04912933  1
  Li  Li3  1  0.63171100  0.61890900  0.28420400  1
  Li  Li4  1  0.98719800  0.36828900  0.28420400  1
  Li  Li5  1  0.38109100  0.01280200  0.28420400  1
  Li  Li6  1  0.95224233  0.65386467  0.38246267  1
  Li  Li7  1  0.34613533  0.29837767  0.38246267  1
  Li  Li8  1  0.70162233  0.04775767  0.38246267  1
  Li  Li9  1  0.29837767  0.95224233  0.61753733  1
  Li  Li10  1  0.65386467  0.70162233  0.61753733  1
  Li  Li11  1  0.04775767  0.34613533  0.61753733  1
  Li  Li12  1  0.61890900  0.98719800  0.71579600  1
  Li  Li13  1  0.01280200  0.63171100  0.71579600  1
  Li  Li14  1  0.36828900  0.38109100  0.71579600  1
  Li  Li15  1  0.96504433  0.28557567  0.95087067  1
  Li  Li16  1  0.32053133  0.03495567  0.95087067  1
  Li  Li17  1  0.71442433  0.67946867  0.95087067  1
  Mn  Mn18  1  0.33333333  0.66666667  0.01650267  1
  Mn  Mn19  1  0.33333333  0.66666667  0.31683067  1
  Mn  Mn20  1  0.00000000  0.00000000  0.34983600  1
  Mn  Mn21  1  0.00000000  0.00000000  0.65016400  1
  Mn  Mn22  1  0.66666667  0.33333333  0.68316933  1
  Mn  Mn23  1  0.66666667  0.33333333  0.98349733  1
  V  V24  1  0.66666667  0.33333333  0.18429933  1
  V  V25  1  0.00000000  0.00000000  0.14903400  1
  V  V26  1  0.33333333  0.66666667  0.51763267  1
  V  V27  1  0.66666667  0.33333333  0.48236733  1
  V  V28  1  0.00000000  0.00000000  0.85096600  1
  V  V29  1  0.33333333  0.66666667  0.81570067  1
  P  P30  1  0.37288400  0.04730700  0.08386400  1
  P  P31  1  0.67442300  0.62711600  0.08386400  1
  P  P32  1  0.95269300  0.32557700  0.08386400  1
  P  P33  1  0.71397367  0.00775633  0.24946933  1
  P  P34  1  0.99224367  0.70621733  0.24946933  1
  P  P35  1  0.29378267  0.28602633  0.24946933  1
  P  P36  1  0.03955067  0.38064033  0.41719733  1
  P  P37  1  0.34108967  0.96044933  0.41719733  1
  P  P38  1  0.61935967  0.65891033  0.41719733  1
  P  P39  1  0.38064033  0.34108967  0.58280267  1
  P  P40  1  0.65891033  0.03955067  0.58280267  1
  P  P41  1  0.96044933  0.61935967  0.58280267  1
  P  P42  1  0.70621733  0.71397367  0.75053067  1
  P  P43  1  0.00775633  0.29378267  0.75053067  1
  P  P44  1  0.28602633  0.99224367  0.75053067  1
  P  P45  1  0.04730700  0.67442300  0.91613600  1
  P  P46  1  0.32557700  0.37288400  0.91613600  1
  P  P47  1  0.62711600  0.95269300  0.91613600  1
  O  O48  1  0.41187400  0.18120800  0.03200100  1
  O  O49  1  0.43104200  0.90896300  0.06919500  1
  O  O50  1  0.47792100  0.56895800  0.06919500  1
  O  O51  1  0.76933400  0.58812600  0.03200100  1
  O  O52  1  0.81879200  0.23066600  0.03200100  1
  O  O53  1  0.47154533  0.15268667  0.14037067  1
  O  O54  1  0.78910133  0.83595567  0.09430167  1
  O  O55  1  0.68114133  0.52845467  0.14037067  1
  O  O56  1  0.09103700  0.52207900  0.06919500  1
  O  O57  1  0.04685433  0.21089867  0.09430167  1
  O  O58  1  0.84731333  0.31885867  0.14037067  1
  O  O59  1  0.16404433  0.95314567  0.09430167  1
  O  O60  1  0.50262233  0.38018767  0.23903167  1
  O  O61  1  0.81935333  0.01447467  0.19296267  1
  O  O62  1  0.61981233  0.12243467  0.23903167  1
  O  O63  1  0.57562967  0.81125433  0.26413833  1
  O  O64  1  0.98552533  0.80487867  0.19296267  1
  O  O65  1  0.87756533  0.49737767  0.23903167  1
  O  O66  1  0.19512133  0.18064667  0.19296267  1
  O  O67  1  0.84787467  0.10266733  0.30133233  1
  O  O68  1  0.89733267  0.74520733  0.30133233  1
  O  O69  1  0.18874567  0.76437533  0.26413833  1
  O  O70  1  0.23562467  0.42437033  0.26413833  1
  O  O71  1  0.25479267  0.15212533  0.30133233  1
  O  O72  1  0.07854067  0.51454133  0.36533433  1
  O  O73  1  0.09770867  0.24229633  0.40252833  1
  O  O74  1  0.14458767  0.90229133  0.40252833  1
  O  O75  1  0.43600067  0.92145933  0.36533433  1
  O  O76  1  0.48545867  0.56399933  0.36533433  1
  O  O77  1  0.13821200  0.48602000  0.47370400  1
  O  O78  1  0.45576800  0.16928900  0.42763500  1
  O  O79  1  0.34780800  0.86178800  0.47370400  1
  O  O80  1  0.75770367  0.85541233  0.40252833  1
  O  O81  1  0.71352100  0.54423200  0.42763500  1
  O  O82  1  0.51398000  0.65219200  0.47370400  1
  O  O83  1  0.83071100  0.28647900  0.42763500  1
  O  O84  1  0.16928900  0.71352100  0.57236500  1
  O  O85  1  0.48602000  0.34780800  0.52629600  1
  O  O86  1  0.28647900  0.45576800  0.57236500  1
  O  O87  1  0.24229633  0.14458767  0.59747167  1
  O  O88  1  0.65219200  0.13821200  0.52629600  1
  O  O89  1  0.54423200  0.83071100  0.57236500  1
  O  O90  1  0.86178800  0.51398000  0.52629600  1
  O  O91  1  0.51454133  0.43600067  0.63466567  1
  O  O92  1  0.56399933  0.07854067  0.63466567  1
  O  O93  1  0.85541233  0.09770867  0.59747167  1
  O  O94  1  0.90229133  0.75770367  0.59747167  1
  O  O95  1  0.92145933  0.48545867  0.63466567  1
  O  O96  1  0.74520733  0.84787467  0.69866767  1
  O  O97  1  0.76437533  0.57562967  0.73586167  1
  O  O98  1  0.81125433  0.23562467  0.73586167  1
  O  O99  1  0.10266733  0.25479267  0.69866767  1
  O  O100  1  0.15212533  0.89733267  0.69866767  1
  O  O101  1  0.80487867  0.81935333  0.80703733  1
  O  O102  1  0.12243467  0.50262233  0.76096833  1
  O  O103  1  0.01447467  0.19512133  0.80703733  1
  O  O104  1  0.42437033  0.18874567  0.73586167  1
  O  O105  1  0.38018767  0.87756533  0.76096833  1
  O  O106  1  0.18064667  0.98552533  0.80703733  1
  O  O107  1  0.49737767  0.61981233  0.76096833  1
  O  O108  1  0.83595567  0.04685433  0.90569833  1
  O  O109  1  0.15268667  0.68114133  0.85962933  1
  O  O110  1  0.95314567  0.78910133  0.90569833  1
  O  O111  1  0.90896300  0.47792100  0.93080500  1
  O  O112  1  0.31885867  0.47154533  0.85962933  1
  O  O113  1  0.21089867  0.16404433  0.90569833  1
  O  O114  1  0.52845467  0.84731333  0.85962933  1
  O  O115  1  0.18120800  0.76933400  0.96799900  1
  O  O116  1  0.23066600  0.41187400  0.96799900  1
  O  O117  1  0.52207900  0.43104200  0.93080500  1
  O  O118  1  0.56895800  0.09103700  0.93080500  1
  O  O119  1  0.58812600  0.81879200  0.96799900  1
