# generated using pymatgen
data_LiCrPO4F
_symmetry_space_group_name_H-M   'P 1'
_cell_length_a   13.07337800
_cell_length_b   6.33834000
_cell_length_c   9.56105395
_cell_angle_alpha   90.00000000
_cell_angle_beta   118.89724187
_cell_angle_gamma   90.00000000
_symmetry_Int_Tables_number   1
_chemical_formula_structural   LiCrPO4F
_chemical_formula_sum   'Li8 Cr8 P8 O32 F8'
_cell_volume   693.61617616
_cell_formula_units_Z   8
loop_
 _symmetry_equiv_pos_site_id
 _symmetry_equiv_pos_as_xyz
  1  'x, y, z'
loop_
 _atom_site_type_symbol
 _atom_site_label
 _atom_site_symmetry_multiplicity
 _atom_site_fract_x
 _atom_site_fract_y
 _atom_site_fract_z
 _atom_site_occupancy
  Li  Li0  1  0.99207650  0.89087850  0.70359000  1
  Li  Li1  1  0.91996250  0.74159150  0.38459000  1
  Li  Li2  1  0.99207650  0.10912150  0.20359000  1
  Li  Li3  1  0.41996250  0.75840850  0.88459000  1
  Li  Li4  1  0.49207650  0.39087850  0.70359000  1
  Li  Li5  1  0.41996250  0.24159150  0.38459000  1
  Li  Li6  1  0.49207650  0.60912150  0.20359000  1
  Li  Li7  1  0.91996250  0.25840850  0.88459000  1
  Cr  Cr8  1  0.77548450  0.33671150  0.35847400  1
  Cr  Cr9  1  0.70546600  0.13232200  0.01080000  1
  Cr  Cr10  1  0.27548450  0.16328850  0.85847400  1
  Cr  Cr11  1  0.20546600  0.36767800  0.51080000  1
  Cr  Cr12  1  0.27548450  0.83671150  0.35847400  1
  Cr  Cr13  1  0.20546600  0.63232200  0.01080000  1
  Cr  Cr14  1  0.77548450  0.66328850  0.85847400  1
  Cr  Cr15  1  0.70546600  0.86767800  0.51080000  1
  P  P16  1  0.68038800  0.61881400  0.06480800  1
  P  P17  1  0.02461550  0.38793550  0.68202400  1
  P  P18  1  0.02461550  0.61206450  0.18202400  1
  P  P19  1  0.18038800  0.88118600  0.56480800  1
  P  P20  1  0.18038800  0.11881400  0.06480800  1
  P  P21  1  0.52461550  0.88793550  0.68202400  1
  P  P22  1  0.52461550  0.11206450  0.18202400  1
  P  P23  1  0.68038800  0.38118600  0.56480800  1
  O  O24  1  0.56577950  0.63856450  0.06204700  1
  O  O25  1  0.63461600  0.18335700  0.16283100  1
  O  O26  1  0.78240350  0.56534150  0.23111300  1
  O  O27  1  0.98566050  0.19992350  0.74112800  1
  O  O28  1  0.92806950  0.46358150  0.51655600  1
  O  O29  1  0.06277850  0.58224650  0.79805600  1
  O  O30  1  0.18574350  0.95173650  0.94406100  1
  O  O31  1  0.72471900  0.81788200  0.01095400  1
  O  O32  1  0.06577950  0.86143550  0.56204700  1
  O  O33  1  0.13461600  0.31664300  0.66283100  1
  O  O34  1  0.98566050  0.80007650  0.24112800  1
  O  O35  1  0.92806950  0.53641850  0.01655600  1
  O  O36  1  0.06277850  0.41775350  0.29805600  1
  O  O37  1  0.18574350  0.04826350  0.44406100  1
  O  O38  1  0.28240350  0.93465850  0.73111300  1
  O  O39  1  0.22471900  0.68211800  0.51095400  1
  O  O40  1  0.06577950  0.13856450  0.06204700  1
  O  O41  1  0.13461600  0.68335700  0.16283100  1
  O  O42  1  0.28240350  0.06534150  0.23111300  1
  O  O43  1  0.48566050  0.69992350  0.74112800  1
  O  O44  1  0.42806950  0.96358150  0.51655600  1
  O  O45  1  0.56277850  0.08224650  0.79805600  1
  O  O46  1  0.68574350  0.45173650  0.94406100  1
  O  O47  1  0.22471900  0.31788200  0.01095400  1
  O  O48  1  0.56577950  0.36143550  0.56204700  1
  O  O49  1  0.63461600  0.81664300  0.66283100  1
  O  O50  1  0.48566050  0.30007650  0.24112800  1
  O  O51  1  0.42806950  0.03641850  0.01655600  1
  O  O52  1  0.56277850  0.91775350  0.29805600  1
  O  O53  1  0.68574350  0.54826350  0.44406100  1
  O  O54  1  0.78240350  0.43465850  0.73111300  1
  O  O55  1  0.72471900  0.18211800  0.51095400  1
  F  F56  1  0.82566350  0.88609850  0.45494400  1
  F  F57  1  0.84225650  0.16652750  0.24150700  1
  F  F58  1  0.32566350  0.61390150  0.95494400  1
  F  F59  1  0.34225650  0.33347250  0.74150700  1
  F  F60  1  0.32566350  0.38609850  0.45494400  1
  F  F61  1  0.34225650  0.66652750  0.24150700  1
  F  F62  1  0.82566350  0.11390150  0.95494400  1
  F  F63  1  0.84225650  0.83347250  0.74150700  1
