# generated using pymatgen
data_Li2CoOF3
_symmetry_space_group_name_H-M   'P 1'
_cell_length_a   9.21958042
_cell_length_b   5.44706200
_cell_length_c   6.03193741
_cell_angle_alpha   90.00000000
_cell_angle_beta   93.11631324
_cell_angle_gamma   90.00000000
_symmetry_Int_Tables_number   1
_chemical_formula_structural   Li2CoOF3
_chemical_formula_sum   'Li8 Co4 O4 F12'
_cell_volume   302.47369107
_cell_formula_units_Z   4
loop_
 _symmetry_equiv_pos_site_id
 _symmetry_equiv_pos_as_xyz
  1  'x, y, z'
loop_
 _atom_site_type_symbol
 _atom_site_label
 _atom_site_symmetry_multiplicity
 _atom_site_fract_x
 _atom_site_fract_y
 _atom_site_fract_z
 _atom_site_occupancy
  Li  Li0  1  0.70583450  0.01769850  0.31673300  1
  Li  Li1  1  0.70583450  0.98230150  0.81673300  1
  Li  Li2  1  0.34784000  0.98812600  0.16204600  1
  Li  Li3  1  0.34784000  0.01187400  0.66204600  1
  Li  Li4  1  0.20583450  0.51769850  0.31673300  1
  Li  Li5  1  0.20583450  0.48230150  0.81673300  1
  Li  Li6  1  0.84784000  0.48812600  0.16204600  1
  Li  Li7  1  0.84784000  0.51187400  0.66204600  1
  Co  Co8  1  0.51934050  0.56771950  0.97364000  1
  Co  Co9  1  0.51934050  0.43228050  0.47364000  1
  Co  Co10  1  0.01934050  0.06771950  0.97364000  1
  Co  Co11  1  0.01934050  0.93228050  0.47364000  1
  O  O12  1  0.10522650  0.92158450  0.20534500  1
  O  O13  1  0.10522650  0.07841550  0.70534500  1
  O  O14  1  0.60522650  0.42158450  0.20534500  1
  O  O15  1  0.60522650  0.57841550  0.70534500  1
  F  F16  1  0.59974100  0.90152900  0.06292400  1
  F  F17  1  0.59974100  0.09847100  0.56292400  1
  F  F18  1  0.34003550  0.24040950  0.40105900  1
  F  F19  1  0.34003550  0.75959050  0.90105900  1
  F  F20  1  0.38199650  0.71657950  0.37825900  1
  F  F21  1  0.38199650  0.28342050  0.87825900  1
  F  F22  1  0.09974100  0.40152900  0.06292400  1
  F  F23  1  0.09974100  0.59847100  0.56292400  1
  F  F24  1  0.84003550  0.74040950  0.40105900  1
  F  F25  1  0.84003550  0.25959050  0.90105900  1
  F  F26  1  0.88199650  0.21657950  0.37825900  1
  F  F27  1  0.88199650  0.78342050  0.87825900  1
