# generated using pymatgen
data_TiV4CoO12
_symmetry_space_group_name_H-M   'P 1'
_cell_length_a   10.11490400
_cell_length_b   9.17097200
_cell_length_c   5.74850454
_cell_angle_alpha   90.00000000
_cell_angle_beta   110.25962035
_cell_angle_gamma   90.00000000
_symmetry_Int_Tables_number   1
_chemical_formula_structural   TiV4CoO12
_chemical_formula_sum   'Ti2 V8 Co2 O24'
_cell_volume   500.26085427
_cell_formula_units_Z   2
loop_
 _symmetry_equiv_pos_site_id
 _symmetry_equiv_pos_as_xyz
  1  'x, y, z'
loop_
 _atom_site_type_symbol
 _atom_site_label
 _atom_site_symmetry_multiplicity
 _atom_site_fract_x
 _atom_site_fract_y
 _atom_site_fract_z
 _atom_site_occupancy
  Ti  Ti0  1  0.00000000  0.90504000  0.50000000  1
  Ti  Ti1  1  0.50000000  0.40504000  0.50000000  1
  V  V2  1  0.20360450  0.40818750  0.00144900  1
  V  V3  1  0.20932000  0.59417500  0.49909300  1
  V  V4  1  0.79639550  0.40818750  0.99855100  1
  V  V5  1  0.79068000  0.59417500  0.50090700  1
  V  V6  1  0.70360450  0.90818750  0.00144900  1
  V  V7  1  0.70932000  0.09417500  0.49909300  1
  V  V8  1  0.29639550  0.90818750  0.99855100  1
  V  V9  1  0.29068000  0.09417500  0.50090700  1
  Co  Co10  1  0.00000000  0.08632200  0.00000000  1
  Co  Co11  1  0.50000000  0.58632200  0.00000000  1
  O  O12  1  0.38887100  0.42367000  0.12893100  1
  O  O13  1  0.14831850  0.23432250  0.98954300  1
  O  O14  1  0.39583550  0.57382150  0.62605300  1
  O  O15  1  0.13347600  0.51359800  0.19157300  1
  O  O16  1  0.85168150  0.23432250  0.01045700  1
  O  O17  1  0.14668500  0.47949900  0.70039700  1
  O  O18  1  0.86652400  0.51359800  0.80842700  1
  O  O19  1  0.13653200  0.77704600  0.48132800  1
  O  O20  1  0.85331500  0.47949900  0.29960300  1
  O  O21  1  0.61112900  0.42367000  0.87106900  1
  O  O22  1  0.86346800  0.77704600  0.51867200  1
  O  O23  1  0.60416450  0.57382150  0.37394700  1
  O  O24  1  0.88887100  0.92367000  0.12893100  1
  O  O25  1  0.64831850  0.73432250  0.98954300  1
  O  O26  1  0.89583550  0.07382150  0.62605300  1
  O  O27  1  0.63347600  0.01359800  0.19157300  1
  O  O28  1  0.35168150  0.73432250  0.01045700  1
  O  O29  1  0.64668500  0.97949900  0.70039700  1
  O  O30  1  0.36652400  0.01359800  0.80842700  1
  O  O31  1  0.63653200  0.27704600  0.48132800  1
  O  O32  1  0.35331500  0.97949900  0.29960300  1
  O  O33  1  0.11112900  0.92367000  0.87106900  1
  O  O34  1  0.36346800  0.27704600  0.51867200  1
  O  O35  1  0.10416450  0.07382150  0.37394700  1
