# generated using pymatgen
data_FeSn3(PO4)6
_symmetry_space_group_name_H-M   'P 1'
_cell_length_a   8.80332202
_cell_length_b   8.80332202
_cell_length_c   22.43820397
_cell_angle_alpha   90.00000000
_cell_angle_beta   90.00000000
_cell_angle_gamma   120.00000000
_symmetry_Int_Tables_number   1
_chemical_formula_structural   FeSn3(PO4)6
_chemical_formula_sum   'Fe3 Sn9 P18 O72'
_cell_volume   1505.95467273
_cell_formula_units_Z   3
loop_
 _symmetry_equiv_pos_site_id
 _symmetry_equiv_pos_as_xyz
  1  'x, y, z'
loop_
 _atom_site_type_symbol
 _atom_site_label
 _atom_site_symmetry_multiplicity
 _atom_site_fract_x
 _atom_site_fract_y
 _atom_site_fract_z
 _atom_site_occupancy
  Fe  Fe0  1  0.00000000  0.00000000  0.14431000  1
  Fe  Fe1  1  0.66666667  0.33333333  0.47764333  1
  Fe  Fe2  1  0.33333333  0.66666667  0.81097667  1
  Sn  Sn3  1  0.66666667  0.33333333  0.18889733  1
  Sn  Sn4  1  0.33333333  0.66666667  0.31072767  1
  Sn  Sn5  1  0.33333333  0.66666667  0.02361567  1
  Sn  Sn6  1  0.33333333  0.66666667  0.52223067  1
  Sn  Sn7  1  0.00000000  0.00000000  0.64406100  1
  Sn  Sn8  1  0.00000000  0.00000000  0.35694900  1
  Sn  Sn9  1  0.00000000  0.00000000  0.85556400  1
  Sn  Sn10  1  0.66666667  0.33333333  0.97739433  1
  Sn  Sn11  1  0.66666667  0.33333333  0.69028233  1
  P  P12  1  0.00327400  0.28826300  0.24958600  1
  P  P13  1  0.71173700  0.71501100  0.24958600  1
  P  P14  1  0.28498900  0.99672600  0.24958600  1
  P  P15  1  0.37361367  0.32770133  0.08299433  1
  P  P16  1  0.95408767  0.62638633  0.08299433  1
  P  P17  1  0.67229867  0.04591233  0.08299433  1
  P  P18  1  0.66994067  0.62159633  0.58291933  1
  P  P19  1  0.37840367  0.04834433  0.58291933  1
  P  P20  1  0.95165567  0.33005933  0.58291933  1
  P  P21  1  0.04028033  0.66103467  0.41632767  1
  P  P22  1  0.62075433  0.95971967  0.41632767  1
  P  P23  1  0.33896533  0.37924567  0.41632767  1
  P  P24  1  0.33660733  0.95492967  0.91625267  1
  P  P25  1  0.04507033  0.38167767  0.91625267  1
  P  P26  1  0.61832233  0.66339267  0.91625267  1
  P  P27  1  0.70694700  0.99436800  0.74966100  1
  P  P28  1  0.28742100  0.29305300  0.74966100  1
  P  P29  1  0.00563200  0.71257900  0.74966100  1
  O  O30  1  0.70280367  0.15823933  0.02708733  1
  O  O31  1  0.45543567  0.29719633  0.02708733  1
  O  O32  1  0.83707933  0.30422767  0.24306467  1
  O  O33  1  0.84176067  0.54456433  0.02708733  1
  O  O34  1  0.16893333  0.47047267  0.25428067  1
  O  O35  1  0.02758300  0.19952200  0.19426500  1
  O  O36  1  0.69577233  0.53285167  0.24306467  1
  O  O37  1  0.52952733  0.69846067  0.25428067  1
  O  O38  1  0.30153933  0.83106667  0.25428067  1
  O  O39  1  0.48578400  0.35916900  0.13942800  1
  O  O40  1  0.19241233  0.16341267  0.09111867  1
  O  O41  1  0.87338500  0.51421600  0.13942800  1
  O  O42  1  0.80047800  0.82806100  0.19426500  1
  O  O43  1  0.46714833  0.16292067  0.24306467  1
  O  O44  1  0.17193900  0.97241700  0.19426500  1
  O  O45  1  0.34737633  0.48825267  0.07826067  1
  O  O46  1  0.14087633  0.65262367  0.07826067  1
  O  O47  1  0.97100033  0.80758767  0.09111867  1
  O  O48  1  0.64083100  0.12661500  0.13942800  1
  O  O49  1  0.51174733  0.85912367  0.07826067  1
  O  O50  1  0.82086467  0.79586333  0.30628733  1
  O  O51  1  0.83658733  0.02899967  0.09111867  1
  O  O52  1  0.20413667  0.02500133  0.30628733  1
  O  O53  1  0.97499867  0.17913533  0.30628733  1
  O  O54  1  0.36947033  0.49157267  0.36042067  1
  O  O55  1  0.12210233  0.63052967  0.36042067  1
  O  O56  1  0.50374600  0.63756100  0.57639800  1
  O  O57  1  0.50842733  0.87789767  0.36042067  1
  O  O58  1  0.83560000  0.80380600  0.58761400  1
  O  O59  1  0.69424967  0.53285533  0.52759833  1
  O  O60  1  0.36243900  0.86618500  0.57639800  1
  O  O61  1  0.19619400  0.03179400  0.58761400  1
  O  O62  1  0.96820600  0.16440000  0.58761400  1
  O  O63  1  0.15245067  0.69250233  0.47276133  1
  O  O64  1  0.85907900  0.49674600  0.42445200  1
  O  O65  1  0.54005167  0.84754933  0.47276133  1
  O  O66  1  0.46714467  0.16139433  0.52759833  1
  O  O67  1  0.13381500  0.49625400  0.57639800  1
  O  O68  1  0.83860567  0.30575033  0.52759833  1
  O  O69  1  0.01404300  0.82158600  0.41159400  1
  O  O70  1  0.80754300  0.98595700  0.41159400  1
  O  O71  1  0.63766700  0.14092100  0.42445200  1
  O  O72  1  0.30749767  0.45994833  0.47276133  1
  O  O73  1  0.17841400  0.19245700  0.41159400  1
  O  O74  1  0.48753133  0.12919667  0.63962067  1
  O  O75  1  0.50325400  0.36233300  0.42445200  1
  O  O76  1  0.87080333  0.35833467  0.63962067  1
  O  O77  1  0.64166533  0.51246867  0.63962067  1
  O  O78  1  0.03613700  0.82490600  0.69375400  1
  O  O79  1  0.78876900  0.96386300  0.69375400  1
  O  O80  1  0.17041267  0.97089433  0.90973133  1
  O  O81  1  0.17509400  0.21123100  0.69375400  1
  O  O82  1  0.50226667  0.13713933  0.92094733  1
  O  O83  1  0.36091633  0.86618867  0.86093167  1
  O  O84  1  0.02910567  0.19951833  0.90973133  1
  O  O85  1  0.86286067  0.36512733  0.92094733  1
  O  O86  1  0.63487267  0.49773333  0.92094733  1
  O  O87  1  0.81911733  0.02583567  0.80609467  1
  O  O88  1  0.52574567  0.83007933  0.75778533  1
  O  O89  1  0.20671833  0.18088267  0.80609467  1
  O  O90  1  0.13381133  0.49472767  0.86093167  1
  O  O91  1  0.80048167  0.82958733  0.90973133  1
  O  O92  1  0.50527233  0.63908367  0.86093167  1
  O  O93  1  0.68070967  0.15491933  0.74492733  1
  O  O94  1  0.47420967  0.31929033  0.74492733  1
  O  O95  1  0.30433367  0.47425433  0.75778533  1
  O  O96  1  0.97416433  0.79328167  0.80609467  1
  O  O97  1  0.84508067  0.52579033  0.74492733  1
  O  O98  1  0.15419800  0.46253000  0.97295400  1
  O  O99  1  0.16992067  0.69566633  0.75778533  1
  O  O100  1  0.53747000  0.69166800  0.97295400  1
  O  O101  1  0.30833200  0.84580200  0.97295400  1
