# generated using pymatgen
data_LiSn(PO3)4
_symmetry_space_group_name_H-M   'P 1'
_cell_length_a   5.40980200
_cell_length_b   14.21062400
_cell_length_c   7.39928336
_cell_angle_alpha   90.00000000
_cell_angle_beta   95.23023047
_cell_angle_gamma   90.00000000
_symmetry_Int_Tables_number   1
_chemical_formula_structural   LiSn(PO3)4
_chemical_formula_sum   'Li2 Sn2 P8 O24'
_cell_volume   566.46383991
_cell_formula_units_Z   2
loop_
 _symmetry_equiv_pos_site_id
 _symmetry_equiv_pos_as_xyz
  1  'x, y, z'
loop_
 _atom_site_type_symbol
 _atom_site_label
 _atom_site_symmetry_multiplicity
 _atom_site_fract_x
 _atom_site_fract_y
 _atom_site_fract_z
 _atom_site_occupancy
  Li  Li0  1  0.64406200  0.99307700  0.09885100  1
  Li  Li1  1  0.35593800  0.49307700  0.90114900  1
  Sn  Sn2  1  0.51674900  0.76283300  0.50807600  1
  Sn  Sn3  1  0.48325100  0.26283300  0.49192400  1
  P  P4  1  0.03722500  0.90374100  0.55599400  1
  P  P5  1  0.00087200  0.61739000  0.44904300  1
  P  P6  1  0.12670100  0.32833700  0.09536200  1
  P  P7  1  0.21828300  0.68350100  0.10896400  1
  P  P8  1  0.78171700  0.18350100  0.89103600  1
  P  P9  1  0.87329900  0.82833700  0.90463800  1
  P  P10  1  0.99912800  0.11739000  0.55095700  1
  P  P11  1  0.96277500  0.40374100  0.44400600  1
  O  O12  1  0.03680100  0.73680700  0.95939000  1
  O  O13  1  0.05254800  0.88030100  0.76866500  1
  O  O14  1  0.98661300  0.14383000  0.76003100  1
  O  O15  1  0.15320700  0.39289400  0.94027800  1
  O  O16  1  0.07755400  0.50782200  0.45845000  1
  O  O17  1  0.14959600  0.34181000  0.55143100  1
  O  O18  1  0.19780900  0.66673100  0.57212000  1
  O  O19  1  0.29867700  0.90336700  0.50023300  1
  O  O20  1  0.26570400  0.12732100  0.50813900  1
  O  O21  1  0.38652100  0.75374500  0.21325100  1
  O  O22  1  0.36170700  0.29422900  0.20176400  1
  O  O23  1  0.33375300  0.60311400  0.02032500  1
  O  O24  1  0.66624700  0.10311400  0.97967500  1
  O  O25  1  0.63829300  0.79422900  0.79823600  1
  O  O26  1  0.61347900  0.25374500  0.78674900  1
  O  O27  1  0.73429600  0.62732100  0.49186100  1
  O  O28  1  0.70132300  0.40336700  0.49976700  1
  O  O29  1  0.80219100  0.16673100  0.42788000  1
  O  O30  1  0.85040400  0.84181000  0.44856900  1
  O  O31  1  0.92244600  0.00782200  0.54155000  1
  O  O32  1  0.84679300  0.89289400  0.05972200  1
  O  O33  1  0.01338700  0.64383000  0.23996900  1
  O  O34  1  0.94745200  0.38030100  0.23133500  1
  O  O35  1  0.96319900  0.23680700  0.04061000  1
