# generated using pymatgen
data_Li4Ti5VO12
_symmetry_space_group_name_H-M   'P 1'
_cell_length_a   5.14830800
_cell_length_b   8.99105800
_cell_length_c   10.40162005
_cell_angle_alpha   90.00000000
_cell_angle_beta   90.35356680
_cell_angle_gamma   90.00000000
_symmetry_Int_Tables_number   1
_chemical_formula_structural   Li4Ti5VO12
_chemical_formula_sum   'Li8 Ti10 V2 O24'
_cell_volume   481.46867521
_cell_formula_units_Z   2
loop_
 _symmetry_equiv_pos_site_id
 _symmetry_equiv_pos_as_xyz
  1  'x, y, z'
loop_
 _atom_site_type_symbol
 _atom_site_label
 _atom_site_symmetry_multiplicity
 _atom_site_fract_x
 _atom_site_fract_y
 _atom_site_fract_z
 _atom_site_occupancy
  Li  Li0  1  0.09275600  0.75373300  0.24894500  1
  Li  Li1  1  0.90724400  0.75373300  0.75105500  1
  Li  Li2  1  0.59275600  0.74626700  0.24894500  1
  Li  Li3  1  0.40724400  0.74626700  0.75105500  1
  Li  Li4  1  0.59275600  0.25373300  0.24894500  1
  Li  Li5  1  0.40724400  0.25373300  0.75105500  1
  Li  Li6  1  0.09275600  0.24626700  0.24894500  1
  Li  Li7  1  0.90724400  0.24626700  0.75105500  1
  Ti  Ti8  1  0.00000000  0.83633300  0.50000000  1
  Ti  Ti9  1  0.50000000  0.83860100  0.00000000  1
  Ti  Ti10  1  0.00000000  0.66139900  0.00000000  1
  Ti  Ti11  1  0.50000000  0.66366700  0.50000000  1
  Ti  Ti12  1  0.50000000  0.00000000  0.50000000  1
  Ti  Ti13  1  0.50000000  0.33633300  0.50000000  1
  Ti  Ti14  1  0.00000000  0.33860100  0.00000000  1
  Ti  Ti15  1  0.50000000  0.16139900  0.00000000  1
  Ti  Ti16  1  0.00000000  0.16366700  0.50000000  1
  Ti  Ti17  1  0.00000000  0.50000000  0.50000000  1
  V  V18  1  0.00000000  0.00000000  0.00000000  1
  V  V19  1  0.50000000  0.50000000  0.00000000  1
  O  O20  1  0.17565900  0.81801600  0.89202400  1
  O  O21  1  0.82434100  0.81801600  0.10797600  1
  O  O22  1  0.16681950  0.67140550  0.60808200  1
  O  O23  1  0.66681950  0.82859450  0.60808200  1
  O  O24  1  0.83318050  0.67140550  0.39191800  1
  O  O25  1  0.83559500  0.00000000  0.39746200  1
  O  O26  1  0.33318050  0.82859450  0.39191800  1
  O  O27  1  0.67565900  0.68198400  0.89202400  1
  O  O28  1  0.64615100  0.00000000  0.89822400  1
  O  O29  1  0.32434100  0.68198400  0.10797600  1
  O  O30  1  0.35384900  0.00000000  0.10177600  1
  O  O31  1  0.16440500  0.00000000  0.60253800  1
  O  O32  1  0.67565900  0.31801600  0.89202400  1
  O  O33  1  0.32434100  0.31801600  0.10797600  1
  O  O34  1  0.66681950  0.17140550  0.60808200  1
  O  O35  1  0.16681950  0.32859450  0.60808200  1
  O  O36  1  0.33318050  0.17140550  0.39191800  1
  O  O37  1  0.33559500  0.50000000  0.39746200  1
  O  O38  1  0.83318050  0.32859450  0.39191800  1
  O  O39  1  0.17565900  0.18198400  0.89202400  1
  O  O40  1  0.14615100  0.50000000  0.89822400  1
  O  O41  1  0.82434100  0.18198400  0.10797600  1
  O  O42  1  0.85384900  0.50000000  0.10177600  1
  O  O43  1  0.66440500  0.50000000  0.60253800  1
