# generated using pymatgen
data_LiFeP2O7
_symmetry_space_group_name_H-M   'P 1'
_cell_length_a   9.54078000
_cell_length_b   8.13574800
_cell_length_c   13.95699430
_cell_angle_alpha   90.00000000
_cell_angle_beta   106.30660967
_cell_angle_gamma   90.00000000
_symmetry_Int_Tables_number   1
_chemical_formula_structural   LiFeP2O7
_chemical_formula_sum   'Li8 Fe8 P16 O56'
_cell_volume   1039.78071291
_cell_formula_units_Z   8
loop_
 _symmetry_equiv_pos_site_id
 _symmetry_equiv_pos_as_xyz
  1  'x, y, z'
loop_
 _atom_site_type_symbol
 _atom_site_label
 _atom_site_symmetry_multiplicity
 _atom_site_fract_x
 _atom_site_fract_y
 _atom_site_fract_z
 _atom_site_occupancy
  Li  Li0  1  0.71767950  0.50362050  0.84434000  1
  Li  Li1  1  0.28232050  0.50362050  0.65566000  1
  Li  Li2  1  0.71767950  0.49637950  0.34434000  1
  Li  Li3  1  0.28232050  0.49637950  0.15566000  1
  Li  Li4  1  0.21767950  0.00362050  0.84434000  1
  Li  Li5  1  0.78232050  0.00362050  0.65566000  1
  Li  Li6  1  0.21767950  0.99637950  0.34434000  1
  Li  Li7  1  0.78232050  0.99637950  0.15566000  1
  Fe  Fe8  1  0.78354900  0.37064900  0.14741700  1
  Fe  Fe9  1  0.78354900  0.62935100  0.64741700  1
  Fe  Fe10  1  0.21645100  0.37064900  0.35258300  1
  Fe  Fe11  1  0.21645100  0.62935100  0.85258300  1
  Fe  Fe12  1  0.28354900  0.87064900  0.14741700  1
  Fe  Fe13  1  0.28354900  0.12935100  0.64741700  1
  Fe  Fe14  1  0.71645100  0.87064900  0.35258300  1
  Fe  Fe15  1  0.71645100  0.12935100  0.85258300  1
  P  P16  1  0.07315000  0.79509300  0.63369900  1
  P  P17  1  0.04060400  0.69534900  0.41269600  1
  P  P18  1  0.95939600  0.69534900  0.08730400  1
  P  P19  1  0.07315000  0.20490700  0.13369900  1
  P  P20  1  0.92685000  0.79509300  0.86630100  1
  P  P21  1  0.04060400  0.30465100  0.91269600  1
  P  P22  1  0.95939600  0.30465100  0.58730400  1
  P  P23  1  0.92685000  0.20490700  0.36630100  1
  P  P24  1  0.57315000  0.29509300  0.63369900  1
  P  P25  1  0.54060400  0.19534900  0.41269600  1
  P  P26  1  0.45939600  0.19534900  0.08730400  1
  P  P27  1  0.57315000  0.70490700  0.13369900  1
  P  P28  1  0.42685000  0.29509300  0.86630100  1
  P  P29  1  0.54060400  0.80465100  0.91269600  1
  P  P30  1  0.45939600  0.80465100  0.58730400  1
  P  P31  1  0.42685000  0.70490700  0.36630100  1
  O  O32  1  0.90820700  0.81407200  0.62090900  1
  O  O33  1  0.87047500  0.69368500  0.38821100  1
  O  O34  1  0.09179300  0.81407200  0.87909100  1
  O  O35  1  0.14065050  0.65570950  0.70777300  1
  O  O36  1  0.89971300  0.81823100  0.14332800  1
  O  O37  1  0.65214400  0.45750500  0.66763100  1
  O  O38  1  0.09906650  0.74576150  0.53119600  1
  O  O39  1  0.89800500  0.51940500  0.08750100  1
  O  O40  1  0.10199500  0.51940500  0.41249900  1
  O  O41  1  0.10028700  0.81823100  0.35667200  1
  O  O42  1  0.90093350  0.74576150  0.96880400  1
  O  O43  1  0.87047500  0.30631500  0.88821100  1
  O  O44  1  0.34785600  0.45750500  0.83236900  1
  O  O45  1  0.85934950  0.65570950  0.79222700  1
  O  O46  1  0.14065050  0.34429050  0.20777300  1
  O  O47  1  0.65214400  0.54249500  0.16763100  1
  O  O48  1  0.12952500  0.69368500  0.11178900  1
  O  O49  1  0.09906650  0.25423850  0.03119600  1
  O  O50  1  0.89971300  0.18176900  0.64332800  1
  O  O51  1  0.89800500  0.48059500  0.58750100  1
  O  O52  1  0.10199500  0.48059500  0.91249900  1
  O  O53  1  0.90093350  0.25423850  0.46880400  1
  O  O54  1  0.34785600  0.54249500  0.33236900  1
  O  O55  1  0.10028700  0.18176900  0.85667200  1
  O  O56  1  0.85934950  0.34429050  0.29222700  1
  O  O57  1  0.90820700  0.18592800  0.12090900  1
  O  O58  1  0.12952500  0.30631500  0.61178900  1
  O  O59  1  0.09179300  0.18592800  0.37909100  1
  O  O60  1  0.40820700  0.31407200  0.62090900  1
  O  O61  1  0.37047500  0.19368500  0.38821100  1
  O  O62  1  0.59179300  0.31407200  0.87909100  1
  O  O63  1  0.64065050  0.15570950  0.70777300  1
  O  O64  1  0.39971300  0.31823100  0.14332800  1
  O  O65  1  0.15214400  0.95750500  0.66763100  1
  O  O66  1  0.59906650  0.24576150  0.53119600  1
  O  O67  1  0.39800500  0.01940500  0.08750100  1
  O  O68  1  0.60199500  0.01940500  0.41249900  1
  O  O69  1  0.60028700  0.31823100  0.35667200  1
  O  O70  1  0.40093350  0.24576150  0.96880400  1
  O  O71  1  0.37047500  0.80631500  0.88821100  1
  O  O72  1  0.84785600  0.95750500  0.83236900  1
  O  O73  1  0.35934950  0.15570950  0.79222700  1
  O  O74  1  0.64065050  0.84429050  0.20777300  1
  O  O75  1  0.15214400  0.04249500  0.16763100  1
  O  O76  1  0.62952500  0.19368500  0.11178900  1
  O  O77  1  0.59906650  0.75423850  0.03119600  1
  O  O78  1  0.39971300  0.68176900  0.64332800  1
  O  O79  1  0.39800500  0.98059500  0.58750100  1
  O  O80  1  0.60199500  0.98059500  0.91249900  1
  O  O81  1  0.40093350  0.75423850  0.46880400  1
  O  O82  1  0.84785600  0.04249500  0.33236900  1
  O  O83  1  0.60028700  0.68176900  0.85667200  1
  O  O84  1  0.35934950  0.84429050  0.29222700  1
  O  O85  1  0.40820700  0.68592800  0.12090900  1
  O  O86  1  0.62952500  0.80631500  0.61178900  1
  O  O87  1  0.59179300  0.68592800  0.37909100  1
