# generated using pymatgen
data_Fe3Co5O16
_symmetry_space_group_name_H-M   'P 1'
_cell_length_a   9.95436822
_cell_length_b   5.71377769
_cell_length_c   8.55365786
_cell_angle_alpha   90.00000000
_cell_angle_beta   91.92042642
_cell_angle_gamma   90.00000000
_symmetry_Int_Tables_number   1
_chemical_formula_structural   Fe3Co5O16
_chemical_formula_sum   'Fe6 Co10 O32'
_cell_volume   486.23354597
_cell_formula_units_Z   2
loop_
 _symmetry_equiv_pos_site_id
 _symmetry_equiv_pos_as_xyz
  1  'x, y, z'
loop_
 _atom_site_type_symbol
 _atom_site_label
 _atom_site_symmetry_multiplicity
 _atom_site_fract_x
 _atom_site_fract_y
 _atom_site_fract_z
 _atom_site_occupancy
  Fe  Fe0  1  0.83427900  0.00000000  0.20984500  1
  Fe  Fe1  1  0.91793500  0.25012900  0.70917600  1
  Fe  Fe2  1  0.91793500  0.74987100  0.70917600  1
  Fe  Fe3  1  0.33427900  0.50000000  0.20984500  1
  Fe  Fe4  1  0.41793500  0.75012900  0.70917600  1
  Fe  Fe5  1  0.41793500  0.24987100  0.70917600  1
  Co  Co6  1  0.58349100  0.75141600  0.20678400  1
  Co  Co7  1  0.66816950  0.00000000  0.48618700  1
  Co  Co8  1  0.58349100  0.24858400  0.20678400  1
  Co  Co9  1  0.66912550  0.50000000  0.70404100  1
  Co  Co10  1  0.83053000  0.50000000  0.98752100  1
  Co  Co11  1  0.08349100  0.25141600  0.20678400  1
  Co  Co12  1  0.16816950  0.50000000  0.48618700  1
  Co  Co13  1  0.08349100  0.74858400  0.20678400  1
  Co  Co14  1  0.16912550  0.00000000  0.70404100  1
  Co  Co15  1  0.33053000  0.00000000  0.98752100  1
  O  O16  1  0.59024900  0.75446800  0.59718900  1
  O  O17  1  0.52345050  0.00000000  0.33429100  1
  O  O18  1  0.66378750  0.00000000  0.09793600  1
  O  O19  1  0.50462950  0.50000000  0.31770100  1
  O  O20  1  0.50808800  0.50000000  0.81575700  1
  O  O21  1  0.59024900  0.24553200  0.59718900  1
  O  O22  1  0.73478950  0.78085250  0.34381000  1
  O  O23  1  0.73478950  0.21914750  0.34381000  1
  O  O24  1  0.66582250  0.50000000  0.10840500  1
  O  O25  1  0.82979550  0.00000000  0.59640400  1
  O  O26  1  0.75388800  0.29066500  0.84657600  1
  O  O27  1  0.75388800  0.70933500  0.84657600  1
  O  O28  1  0.82926750  0.50000000  0.59581600  1
  O  O29  1  0.91809200  0.25352600  0.10007900  1
  O  O30  1  0.97624850  0.50000000  0.85477700  1
  O  O31  1  0.91809200  0.74647400  0.10007900  1
  O  O32  1  0.09024900  0.25446800  0.59718900  1
  O  O33  1  0.02345050  0.50000000  0.33429100  1
  O  O34  1  0.16378750  0.50000000  0.09793600  1
  O  O35  1  0.00462950  0.00000000  0.31770100  1
  O  O36  1  0.00808800  0.00000000  0.81575700  1
  O  O37  1  0.09024900  0.74553200  0.59718900  1
  O  O38  1  0.23478950  0.28085250  0.34381000  1
  O  O39  1  0.23478950  0.71914750  0.34381000  1
  O  O40  1  0.16582250  0.00000000  0.10840500  1
  O  O41  1  0.32979550  0.50000000  0.59640400  1
  O  O42  1  0.25388800  0.79066500  0.84657600  1
  O  O43  1  0.25388800  0.20933500  0.84657600  1
  O  O44  1  0.32926750  0.00000000  0.59581600  1
  O  O45  1  0.41809200  0.75352600  0.10007900  1
  O  O46  1  0.47624850  0.00000000  0.85477700  1
  O  O47  1  0.41809200  0.24647400  0.10007900  1
