# generated using pymatgen
data_LiV2(PO4)3
_symmetry_space_group_name_H-M   'P 1'
_cell_length_a   18.23635800
_cell_length_b   6.02113000
_cell_length_c   8.05362650
_cell_angle_alpha   90.00000000
_cell_angle_beta   106.21846890
_cell_angle_gamma   90.00000000
_symmetry_Int_Tables_number   1
_chemical_formula_structural   LiV2(PO4)3
_chemical_formula_sum   'Li4 V8 P12 O48'
_cell_volume   849.12372422
_cell_formula_units_Z   4
loop_
 _symmetry_equiv_pos_site_id
 _symmetry_equiv_pos_as_xyz
  1  'x, y, z'
loop_
 _atom_site_type_symbol
 _atom_site_label
 _atom_site_symmetry_multiplicity
 _atom_site_fract_x
 _atom_site_fract_y
 _atom_site_fract_z
 _atom_site_occupancy
  Li  Li0  1  0.00000000  0.58924800  0.25000000  1
  Li  Li1  1  0.00000000  0.41075200  0.75000000  1
  Li  Li2  1  0.50000000  0.08924800  0.25000000  1
  Li  Li3  1  0.50000000  0.91075200  0.75000000  1
  V  V4  1  0.36544100  0.33483900  0.40759900  1
  V  V5  1  0.36544100  0.66516100  0.90759900  1
  V  V6  1  0.13455900  0.83483900  0.09240100  1
  V  V7  1  0.13455900  0.16516100  0.59240100  1
  V  V8  1  0.86544100  0.83483900  0.40759900  1
  V  V9  1  0.86544100  0.16516100  0.90759900  1
  V  V10  1  0.63455900  0.33483900  0.09240100  1
  V  V11  1  0.63455900  0.66516100  0.59240100  1
  P  P12  1  0.32122400  0.82509700  0.26876700  1
  P  P13  1  0.32122400  0.17490300  0.76876700  1
  P  P14  1  0.17877600  0.32509700  0.23123300  1
  P  P15  1  0.17877600  0.67490300  0.73123300  1
  P  P16  1  0.00000000  0.06192500  0.25000000  1
  P  P17  1  0.00000000  0.93807500  0.75000000  1
  P  P18  1  0.82122400  0.32509700  0.26876700  1
  P  P19  1  0.82122400  0.67490300  0.76876700  1
  P  P20  1  0.67877600  0.82509700  0.23123300  1
  P  P21  1  0.67877600  0.17490300  0.73123300  1
  P  P22  1  0.50000000  0.56192500  0.25000000  1
  P  P23  1  0.50000000  0.43807500  0.75000000  1
  O  O24  1  0.46652850  0.71820950  0.09502400  1
  O  O25  1  0.46652850  0.28179050  0.59502400  1
  O  O26  1  0.43771750  0.39496850  0.27130600  1
  O  O27  1  0.43771750  0.60503150  0.77130600  1
  O  O28  1  0.37141850  0.03647750  0.31331700  1
  O  O29  1  0.35958900  0.65735500  0.41195100  1
  O  O30  1  0.32497600  0.74107100  0.08644200  1
  O  O31  1  0.37141850  0.96352250  0.81331700  1
  O  O32  1  0.35958900  0.34264500  0.91195100  1
  O  O33  1  0.26265800  0.36149700  0.24245600  1
  O  O34  1  0.32497600  0.25892900  0.58644200  1
  O  O35  1  0.26265800  0.63850300  0.74245600  1
  O  O36  1  0.23734200  0.86149700  0.25754400  1
  O  O37  1  0.17502400  0.24107100  0.41355800  1
  O  O38  1  0.23734200  0.13850300  0.75754400  1
  O  O39  1  0.14041100  0.15735500  0.08804900  1
  O  O40  1  0.12858150  0.53647750  0.18668300  1
  O  O41  1  0.17502400  0.75892900  0.91355800  1
  O  O42  1  0.14041100  0.84264500  0.58804900  1
  O  O43  1  0.12858150  0.46352250  0.68668300  1
  O  O44  1  0.06228250  0.89496850  0.22869400  1
  O  O45  1  0.06228250  0.10503150  0.72869400  1
  O  O46  1  0.03347150  0.21820950  0.40497600  1
  O  O47  1  0.03347150  0.78179050  0.90497600  1
  O  O48  1  0.96652850  0.21820950  0.09502400  1
  O  O49  1  0.96652850  0.78179050  0.59502400  1
  O  O50  1  0.93771750  0.89496850  0.27130600  1
  O  O51  1  0.93771750  0.10503150  0.77130600  1
  O  O52  1  0.87141850  0.53647750  0.31331700  1
  O  O53  1  0.85958900  0.15735500  0.41195100  1
  O  O54  1  0.82497600  0.24107100  0.08644200  1
  O  O55  1  0.87141850  0.46352250  0.81331700  1
  O  O56  1  0.85958900  0.84264500  0.91195100  1
  O  O57  1  0.76265800  0.86149700  0.24245600  1
  O  O58  1  0.82497600  0.75892900  0.58644200  1
  O  O59  1  0.76265800  0.13850300  0.74245600  1
  O  O60  1  0.73734200  0.36149700  0.25754400  1
  O  O61  1  0.67502400  0.74107100  0.41355800  1
  O  O62  1  0.73734200  0.63850300  0.75754400  1
  O  O63  1  0.64041100  0.65735500  0.08804900  1
  O  O64  1  0.62858150  0.03647750  0.18668300  1
  O  O65  1  0.67502400  0.25892900  0.91355800  1
  O  O66  1  0.64041100  0.34264500  0.58804900  1
  O  O67  1  0.62858150  0.96352250  0.68668300  1
  O  O68  1  0.56228250  0.39496850  0.22869400  1
  O  O69  1  0.56228250  0.60503150  0.72869400  1
  O  O70  1  0.53347150  0.71820950  0.40497600  1
  O  O71  1  0.53347150  0.28179050  0.90497600  1
