# generated using pymatgen
data_Li2Mn(CO3)2
_symmetry_space_group_name_H-M   'P 1'
_cell_length_a   5.23406813
_cell_length_b   7.77045501
_cell_length_c   7.47528133
_cell_angle_alpha   90.00000000
_cell_angle_beta   113.74722443
_cell_angle_gamma   90.00000000
_symmetry_Int_Tables_number   1
_chemical_formula_structural   Li2Mn(CO3)2
_chemical_formula_sum   'Li4 Mn2 C4 O12'
_cell_volume   278.28610959
_cell_formula_units_Z   2
loop_
 _symmetry_equiv_pos_site_id
 _symmetry_equiv_pos_as_xyz
  1  'x, y, z'
loop_
 _atom_site_type_symbol
 _atom_site_label
 _atom_site_symmetry_multiplicity
 _atom_site_fract_x
 _atom_site_fract_y
 _atom_site_fract_z
 _atom_site_occupancy
  Li  Li0  1  0.90104600  0.40255300  0.28761850  1
  Li  Li1  1  0.09895400  0.90255300  0.21238150  1
  Li  Li2  1  0.90104600  0.09744700  0.78761850  1
  Li  Li3  1  0.09895400  0.59744700  0.71238150  1
  Mn  Mn4  1  0.50000000  0.00000000  0.00000000  1
  Mn  Mn5  1  0.50000000  0.50000000  0.50000000  1
  C  C6  1  0.33005900  0.25650800  0.16085550  1
  C  C7  1  0.66994100  0.75650800  0.33914450  1
  C  C8  1  0.33005900  0.24349200  0.66085550  1
  C  C9  1  0.66994100  0.74349200  0.83914450  1
  O  O10  1  0.17798300  0.11800800  0.09369050  1
  O  O11  1  0.23595500  0.38145800  0.23049150  1
  O  O12  1  0.57219600  0.26177100  0.15200350  1
  O  O13  1  0.42780400  0.76177100  0.34799650  1
  O  O14  1  0.76404500  0.88145800  0.26950850  1
  O  O15  1  0.17798300  0.38199200  0.59369050  1
  O  O16  1  0.82201700  0.61800800  0.40630950  1
  O  O17  1  0.23595500  0.11854200  0.73049150  1
  O  O18  1  0.57219600  0.23822900  0.65200350  1
  O  O19  1  0.42780400  0.73822900  0.84799650  1
  O  O20  1  0.76404500  0.61854200  0.76950850  1
  O  O21  1  0.82201700  0.88199200  0.90630950  1
