# generated using pymatgen
data_MgFe2O5
_symmetry_space_group_name_H-M   'P 1'
_cell_length_a   3.91862000
_cell_length_b   9.75307800
_cell_length_c   9.75593700
_cell_angle_alpha   90.00000000
_cell_angle_beta   90.00000000
_cell_angle_gamma   90.00000000
_symmetry_Int_Tables_number   1
_chemical_formula_structural   MgFe2O5
_chemical_formula_sum   'Mg4 Fe8 O20'
_cell_volume   372.85831736
_cell_formula_units_Z   4
loop_
 _symmetry_equiv_pos_site_id
 _symmetry_equiv_pos_as_xyz
  1  'x, y, z'
loop_
 _atom_site_type_symbol
 _atom_site_label
 _atom_site_symmetry_multiplicity
 _atom_site_fract_x
 _atom_site_fract_y
 _atom_site_fract_z
 _atom_site_occupancy
  Mg  Mg0  1  0.00000000  0.20470300  0.75000000  1
  Mg  Mg1  1  0.50000000  0.29529700  0.25000000  1
  Mg  Mg2  1  0.50000000  0.70470300  0.75000000  1
  Mg  Mg3  1  0.00000000  0.79529700  0.25000000  1
  Fe  Fe4  1  0.00000000  0.13863900  0.06115700  1
  Fe  Fe5  1  0.00000000  0.13863900  0.43884300  1
  Fe  Fe6  1  0.50000000  0.36136100  0.56115700  1
  Fe  Fe7  1  0.50000000  0.36136100  0.93884300  1
  Fe  Fe8  1  0.50000000  0.63863900  0.06115700  1
  Fe  Fe9  1  0.50000000  0.63863900  0.43884300  1
  Fe  Fe10  1  0.00000000  0.86136100  0.56115700  1
  Fe  Fe11  1  0.00000000  0.86136100  0.93884300  1
  O  O12  1  0.00000000  0.04674100  0.61466300  1
  O  O13  1  0.00000000  0.04674100  0.88533700  1
  O  O14  1  0.00000000  0.30952200  0.55659000  1
  O  O15  1  0.00000000  0.30952200  0.94341000  1
  O  O16  1  0.50000000  0.28479000  0.75000000  1
  O  O17  1  0.00000000  0.21521000  0.25000000  1
  O  O18  1  0.50000000  0.19047800  0.05659000  1
  O  O19  1  0.50000000  0.45325900  0.11466300  1
  O  O20  1  0.50000000  0.19047800  0.44341000  1
  O  O21  1  0.50000000  0.45325900  0.38533700  1
  O  O22  1  0.50000000  0.54674100  0.61466300  1
  O  O23  1  0.50000000  0.54674100  0.88533700  1
  O  O24  1  0.50000000  0.80952200  0.55659000  1
  O  O25  1  0.50000000  0.80952200  0.94341000  1
  O  O26  1  0.00000000  0.78479000  0.75000000  1
  O  O27  1  0.50000000  0.71521000  0.25000000  1
  O  O28  1  0.00000000  0.69047800  0.05659000  1
  O  O29  1  0.00000000  0.95325900  0.11466300  1
  O  O30  1  0.00000000  0.69047800  0.44341000  1
  O  O31  1  0.00000000  0.95325900  0.38533700  1
