# generated using pymatgen
data_Li2Ni5O7
_symmetry_space_group_name_H-M   'P 1'
_cell_length_a   9.30573600
_cell_length_b   4.10768600
_cell_length_c   6.60217663
_cell_angle_alpha   90.00000000
_cell_angle_beta   98.64453055
_cell_angle_gamma   90.00000000
_symmetry_Int_Tables_number   1
_chemical_formula_structural   Li2Ni5O7
_chemical_formula_sum   'Li4 Ni10 O14'
_cell_volume   249.50153517
_cell_formula_units_Z   2
loop_
 _symmetry_equiv_pos_site_id
 _symmetry_equiv_pos_as_xyz
  1  'x, y, z'
loop_
 _atom_site_type_symbol
 _atom_site_label
 _atom_site_symmetry_multiplicity
 _atom_site_fract_x
 _atom_site_fract_y
 _atom_site_fract_z
 _atom_site_occupancy
  Li  Li0  1  0.56697800  0.00000000  0.21875000  1
  Li  Li1  1  0.93302200  0.50000000  0.78125000  1
  Li  Li2  1  0.06697800  0.50000000  0.21875000  1
  Li  Li3  1  0.43302200  0.00000000  0.78125000  1
  Ni  Ni4  1  0.78248500  0.50000000  0.35618600  1
  Ni  Ni5  1  0.86043100  0.00000000  0.07022700  1
  Ni  Ni6  1  0.63956900  0.50000000  0.92977300  1
  Ni  Ni7  1  0.00000000  0.00000000  0.50000000  1
  Ni  Ni8  1  0.71751500  0.00000000  0.64381400  1
  Ni  Ni9  1  0.28248500  0.00000000  0.35618600  1
  Ni  Ni10  1  0.36043100  0.50000000  0.07022700  1
  Ni  Ni11  1  0.13956900  0.00000000  0.92977300  1
  Ni  Ni12  1  0.50000000  0.50000000  0.50000000  1
  Ni  Ni13  1  0.21751500  0.50000000  0.64381400  1
  O  O14  1  0.79122800  0.00000000  0.36221200  1
  O  O15  1  0.56800700  0.50000000  0.21236500  1
  O  O16  1  0.84422900  0.50000000  0.07617600  1
  O  O17  1  0.93199300  0.00000000  0.78763500  1
  O  O18  1  0.65577100  0.00000000  0.92382400  1
  O  O19  1  0.00000000  0.50000000  0.50000000  1
  O  O20  1  0.70877200  0.50000000  0.63778800  1
  O  O21  1  0.29122800  0.50000000  0.36221200  1
  O  O22  1  0.06800700  0.00000000  0.21236500  1
  O  O23  1  0.34422900  0.00000000  0.07617600  1
  O  O24  1  0.43199300  0.50000000  0.78763500  1
  O  O25  1  0.15577100  0.50000000  0.92382400  1
  O  O26  1  0.50000000  0.00000000  0.50000000  1
  O  O27  1  0.20877200  0.00000000  0.63778800  1
