# generated using pymatgen
data_Mn3O5F
_symmetry_space_group_name_H-M   'P 1'
_cell_length_a   8.91540800
_cell_length_b   6.32021200
_cell_length_c   7.17873273
_cell_angle_alpha   90.00000000
_cell_angle_beta   112.91564117
_cell_angle_gamma   90.00000000
_symmetry_Int_Tables_number   1
_chemical_formula_structural   Mn3O5F
_chemical_formula_sum   'Mn12 O20 F4'
_cell_volume   372.57833901
_cell_formula_units_Z   4
loop_
 _symmetry_equiv_pos_site_id
 _symmetry_equiv_pos_as_xyz
  1  'x, y, z'
loop_
 _atom_site_type_symbol
 _atom_site_label
 _atom_site_symmetry_multiplicity
 _atom_site_fract_x
 _atom_site_fract_y
 _atom_site_fract_z
 _atom_site_occupancy
  Mn  Mn0  1  0.00000000  0.50000000  0.00000000  1
  Mn  Mn1  1  0.33044000  0.50000000  0.84419400  1
  Mn  Mn2  1  0.00000000  0.50000000  0.50000000  1
  Mn  Mn3  1  0.34268100  0.50000000  0.32091100  1
  Mn  Mn4  1  0.65731900  0.50000000  0.67908900  1
  Mn  Mn5  1  0.66956000  0.50000000  0.15580600  1
  Mn  Mn6  1  0.50000000  0.00000000  0.00000000  1
  Mn  Mn7  1  0.83044000  0.00000000  0.84419400  1
  Mn  Mn8  1  0.50000000  0.00000000  0.50000000  1
  Mn  Mn9  1  0.84268100  0.00000000  0.32091100  1
  Mn  Mn10  1  0.15731900  0.00000000  0.67908900  1
  Mn  Mn11  1  0.16956000  0.00000000  0.15580600  1
  O  O12  1  0.83265800  0.69381300  0.82906400  1
  O  O13  1  0.00000000  0.19335500  0.50000000  1
  O  O14  1  0.10371700  0.50000000  0.79801400  1
  O  O15  1  0.43932600  0.50000000  0.12947800  1
  O  O16  1  0.56067400  0.50000000  0.87052200  1
  O  O17  1  0.89628300  0.50000000  0.20198600  1
  O  O18  1  0.00000000  0.80664500  0.50000000  1
  O  O19  1  0.83265800  0.30618700  0.82906400  1
  O  O20  1  0.16734200  0.30618700  0.17093600  1
  O  O21  1  0.16734200  0.69381300  0.17093600  1
  O  O22  1  0.33265800  0.19381300  0.82906400  1
  O  O23  1  0.50000000  0.69335500  0.50000000  1
  O  O24  1  0.60371700  0.00000000  0.79801400  1
  O  O25  1  0.93932600  0.00000000  0.12947800  1
  O  O26  1  0.06067400  0.00000000  0.87052200  1
  O  O27  1  0.39628300  0.00000000  0.20198600  1
  O  O28  1  0.50000000  0.30664500  0.50000000  1
  O  O29  1  0.33265800  0.80618700  0.82906400  1
  O  O30  1  0.66734200  0.80618700  0.17093600  1
  O  O31  1  0.66734200  0.19381300  0.17093600  1
  F  F32  1  0.75473600  0.50000000  0.46264200  1
  F  F33  1  0.24526400  0.50000000  0.53735800  1
  F  F34  1  0.25473600  0.00000000  0.46264200  1
  F  F35  1  0.74526400  0.00000000  0.53735800  1
