# generated using pymatgen
data_Fe5(O4F)2
_symmetry_space_group_name_H-M   'P 1'
_cell_length_a   5.54888100
_cell_length_b   4.66042000
_cell_length_c   12.93551283
_cell_angle_alpha   90.00000000
_cell_angle_beta   101.76913107
_cell_angle_gamma   90.00000000
_symmetry_Int_Tables_number   1
_chemical_formula_structural   Fe5(O4F)2
_chemical_formula_sum   'Fe10 O16 F4'
_cell_volume   327.48151835
_cell_formula_units_Z   2
loop_
 _symmetry_equiv_pos_site_id
 _symmetry_equiv_pos_as_xyz
  1  'x, y, z'
loop_
 _atom_site_type_symbol
 _atom_site_label
 _atom_site_symmetry_multiplicity
 _atom_site_fract_x
 _atom_site_fract_y
 _atom_site_fract_z
 _atom_site_occupancy
  Fe  Fe0  1  0.15958500  0.49764400  0.59752200  1
  Fe  Fe1  1  0.75510300  0.52719800  0.00623400  1
  Fe  Fe2  1  0.96504400  0.52293200  0.80399600  1
  Fe  Fe3  1  0.56177400  0.48588400  0.20444800  1
  Fe  Fe4  1  0.35849500  0.47217700  0.40159000  1
  Fe  Fe5  1  0.24489700  0.02719800  0.99376600  1
  Fe  Fe6  1  0.84041500  0.99764400  0.40247800  1
  Fe  Fe7  1  0.43822600  0.98588400  0.79555200  1
  Fe  Fe8  1  0.03495600  0.02293200  0.19600400  1
  Fe  Fe9  1  0.64150500  0.97217700  0.59841000  1
  O  O10  1  0.19874900  0.20295900  0.85485400  1
  O  O11  1  0.59773700  0.18068900  0.46923900  1
  O  O12  1  0.79515200  0.18958800  0.26713300  1
  O  O13  1  0.39782700  0.18091100  0.65921200  1
  O  O14  1  0.99499600  0.20796800  0.05823700  1
  O  O15  1  0.49667000  0.31670600  0.06402400  1
  O  O16  1  0.29511600  0.30341700  0.26233100  1
  O  O17  1  0.09386000  0.30058200  0.45797000  1
  O  O18  1  0.00500400  0.70796800  0.94176300  1
  O  O19  1  0.60217300  0.68091100  0.34078800  1
  O  O20  1  0.20484800  0.68958800  0.73286700  1
  O  O21  1  0.40226300  0.68068900  0.53076100  1
  O  O22  1  0.80125100  0.70295900  0.14514600  1
  O  O23  1  0.70488400  0.80341700  0.73766900  1
  O  O24  1  0.90614000  0.80058200  0.54203000  1
  O  O25  1  0.50333000  0.81670600  0.93597600  1
  F  F26  1  0.89181200  0.30139900  0.66150400  1
  F  F27  1  0.69527500  0.30994400  0.85991800  1
  F  F28  1  0.30472500  0.80994400  0.14008200  1
  F  F29  1  0.10818800  0.80139900  0.33849600  1
