# generated using pymatgen
data_LiFeSiO4
_symmetry_space_group_name_H-M   'P 1'
_cell_length_a   7.27606867
_cell_length_b   7.27606867
_cell_length_c   7.27606867
_cell_angle_alpha   90.00000000
_cell_angle_beta   90.00000000
_cell_angle_gamma   90.00000000
_symmetry_Int_Tables_number   1
_chemical_formula_structural   LiFeSiO4
_chemical_formula_sum   'Li4 Fe4 Si4 O16'
_cell_volume   385.20362636
_cell_formula_units_Z   4
loop_
 _symmetry_equiv_pos_site_id
 _symmetry_equiv_pos_as_xyz
  1  'x, y, z'
loop_
 _atom_site_type_symbol
 _atom_site_label
 _atom_site_symmetry_multiplicity
 _atom_site_fract_x
 _atom_site_fract_y
 _atom_site_fract_z
 _atom_site_occupancy
  Li  Li0  1  0.75055467  0.24944533  0.74944533  1
  Li  Li1  1  0.74944533  0.75055467  0.24944533  1
  Li  Li2  1  0.25055467  0.25055467  0.25055467  1
  Li  Li3  1  0.24944533  0.74944533  0.75055467  1
  Fe  Fe4  1  0.19401300  0.30598700  0.69401300  1
  Fe  Fe5  1  0.30598700  0.69401300  0.19401300  1
  Fe  Fe6  1  0.69401300  0.19401300  0.30598700  1
  Fe  Fe7  1  0.80598700  0.80598700  0.80598700  1
  Si  Si8  1  0.53219800  0.53219800  0.53219800  1
  Si  Si9  1  0.46780200  0.03219800  0.96780200  1
  Si  Si10  1  0.96780200  0.46780200  0.03219800  1
  Si  Si11  1  0.03219800  0.96780200  0.46780200  1
  O  O12  1  0.66023100  0.66023100  0.66023100  1
  O  O13  1  0.83976900  0.33976900  0.16023100  1
  O  O14  1  0.16023100  0.83976900  0.33976900  1
  O  O15  1  0.33976900  0.16023100  0.83976900  1
  O  O16  1  0.47711700  0.11997700  0.17699700  1
  O  O17  1  0.67699700  0.02288300  0.88002300  1
  O  O18  1  0.61997700  0.32300300  0.52288300  1
  O  O19  1  0.88002300  0.67699700  0.02288300  1
  O  O20  1  0.82300300  0.97711700  0.38002300  1
  O  O21  1  0.02288300  0.88002300  0.67699700  1
  O  O22  1  0.97711700  0.38002300  0.82300300  1
  O  O23  1  0.17699700  0.47711700  0.11997700  1
  O  O24  1  0.11997700  0.17699700  0.47711700  1
  O  O25  1  0.38002300  0.82300300  0.97711700  1
  O  O26  1  0.32300300  0.52288300  0.61997700  1
  O  O27  1  0.52288300  0.61997700  0.32300300  1
