# generated using pymatgen
data_Li3VCrP2(O4F)2
_symmetry_space_group_name_H-M   'P 1'
_cell_length_a   5.29307248
_cell_length_b   5.38311224
_cell_length_c   7.55442207
_cell_angle_alpha   106.41879994
_cell_angle_beta   109.19979240
_cell_angle_gamma   96.93675342
_symmetry_Int_Tables_number   1
_chemical_formula_structural   Li3VCrP2(O4F)2
_chemical_formula_sum   'Li3 V1 Cr1 P2 O8 F2'
_cell_volume   189.48270696
_cell_formula_units_Z   1
loop_
 _symmetry_equiv_pos_site_id
 _symmetry_equiv_pos_as_xyz
  1  'x, y, z'
loop_
 _atom_site_type_symbol
 _atom_site_label
 _atom_site_symmetry_multiplicity
 _atom_site_fract_x
 _atom_site_fract_y
 _atom_site_fract_z
 _atom_site_occupancy
  Li  Li0  1  0.74242800  0.41104600  0.86531000  1
  Li  Li1  1  0.49336300  0.03605100  0.50962800  1
  Li  Li2  1  0.27406600  0.60096000  0.14866600  1
  V  V3  1  0.99990200  0.99963900  0.99922700  1
  Cr  Cr4  1  0.99397000  0.99648500  0.50052100  1
  P  P5  1  0.66570300  0.35649500  0.23938700  1
  P  P6  1  0.33268900  0.64010100  0.75817800  1
  O  O7  1  0.86965900  0.32827400  0.12681600  1
  O  O8  1  0.72214300  0.20924700  0.38984900  1
  O  O9  1  0.67502300  0.65400000  0.33628400  1
  O  O10  1  0.36354900  0.24571500  0.07854200  1
  O  O11  1  0.63583600  0.75142300  0.91756800  1
  O  O12  1  0.32305900  0.34146900  0.65945700  1
  O  O13  1  0.27301600  0.78904000  0.60910300  1
  O  O14  1  0.13205900  0.66786400  0.87382000  1
  F  F15  1  0.83267600  0.09347300  0.75178300  1
  F  F16  1  0.16352000  0.91229900  0.24914100  1
