# generated using pymatgen
data_Fe4OF8
_symmetry_space_group_name_H-M   'P 1'
_cell_length_a   9.40156830
_cell_length_b   5.35946626
_cell_length_c   14.95565102
_cell_angle_alpha   90.00000000
_cell_angle_beta   90.51271610
_cell_angle_gamma   90.00000000
_symmetry_Int_Tables_number   1
_chemical_formula_structural   Fe4OF8
_chemical_formula_sum   'Fe16 O4 F32'
_cell_volume   753.54602113
_cell_formula_units_Z   4
loop_
 _symmetry_equiv_pos_site_id
 _symmetry_equiv_pos_as_xyz
  1  'x, y, z'
loop_
 _atom_site_type_symbol
 _atom_site_label
 _atom_site_symmetry_multiplicity
 _atom_site_fract_x
 _atom_site_fract_y
 _atom_site_fract_z
 _atom_site_occupancy
  Fe  Fe0  1  0.83162900  0.52941500  0.82240100  1
  Fe  Fe1  1  0.83361850  0.50432150  0.51711500  1
  Fe  Fe2  1  0.83361850  0.49567850  0.01711500  1
  Fe  Fe3  1  0.83162900  0.47058500  0.32240100  1
  Fe  Fe4  1  0.67533150  0.97285250  0.97303200  1
  Fe  Fe5  1  0.67533150  0.02714750  0.47303200  1
  Fe  Fe6  1  0.66411150  0.01602350  0.67995900  1
  Fe  Fe7  1  0.66411150  0.98397650  0.17995900  1
  Fe  Fe8  1  0.33162900  0.02941500  0.82240100  1
  Fe  Fe9  1  0.33361850  0.00432150  0.51711500  1
  Fe  Fe10  1  0.33361850  0.99567850  0.01711500  1
  Fe  Fe11  1  0.33162900  0.97058500  0.32240100  1
  Fe  Fe12  1  0.17533150  0.47285250  0.97303200  1
  Fe  Fe13  1  0.17533150  0.52714750  0.47303200  1
  Fe  Fe14  1  0.16411150  0.51602350  0.67995900  1
  Fe  Fe15  1  0.16411150  0.48397650  0.17995900  1
  O  O16  1  0.80926300  0.76740800  0.92544800  1
  O  O17  1  0.80926300  0.23259200  0.42544800  1
  O  O18  1  0.30926300  0.26740800  0.92544800  1
  O  O19  1  0.30926300  0.73259200  0.42544800  1
  F  F20  1  0.50386000  0.13115800  0.74394900  1
  F  F21  1  0.99071350  0.63464850  0.42295500  1
  F  F22  1  0.99071350  0.36535150  0.92295500  1
  F  F23  1  0.80310500  0.80561100  0.24801900  1
  F  F24  1  0.50386000  0.86884200  0.24394900  1
  F  F25  1  0.80310500  0.19438900  0.74801900  1
  F  F26  1  0.68900300  0.70186100  0.42366300  1
  F  F27  1  0.79347600  0.15313200  0.07827500  1
  F  F28  1  0.68900300  0.29813900  0.92366300  1
  F  F29  1  0.79347600  0.84686800  0.57827500  1
  F  F30  1  0.67611750  0.28583050  0.58350500  1
  F  F31  1  0.68147350  0.29655550  0.23945400  1
  F  F32  1  0.52591400  0.10462400  0.07915900  1
  F  F33  1  0.67611750  0.71416950  0.08350500  1
  F  F34  1  0.68147350  0.70344450  0.73945400  1
  F  F35  1  0.52591400  0.89537600  0.57915900  1
  F  F36  1  0.00386000  0.63115800  0.74394900  1
  F  F37  1  0.49071350  0.13464850  0.42295500  1
  F  F38  1  0.49071350  0.86535150  0.92295500  1
  F  F39  1  0.30310500  0.30561100  0.24801900  1
  F  F40  1  0.00386000  0.36884200  0.24394900  1
  F  F41  1  0.30310500  0.69438900  0.74801900  1
  F  F42  1  0.18900300  0.20186100  0.42366300  1
  F  F43  1  0.29347600  0.65313200  0.07827500  1
  F  F44  1  0.18900300  0.79813900  0.92366300  1
  F  F45  1  0.29347600  0.34686800  0.57827500  1
  F  F46  1  0.17611750  0.78583050  0.58350500  1
  F  F47  1  0.18147350  0.79655550  0.23945400  1
  F  F48  1  0.02591400  0.60462400  0.07915900  1
  F  F49  1  0.17611750  0.21416950  0.08350500  1
  F  F50  1  0.18147350  0.20344450  0.73945400  1
  F  F51  1  0.02591400  0.39537600  0.57915900  1
