# generated using pymatgen
data_Li4CoOF4
_symmetry_space_group_name_H-M   'P 1'
_cell_length_a   2.91965424
_cell_length_b   2.91965424
_cell_length_c   21.05083904
_cell_angle_alpha   90.00000000
_cell_angle_beta   90.00000000
_cell_angle_gamma   90.00000000
_symmetry_Int_Tables_number   1
_chemical_formula_structural   Li4CoOF4
_chemical_formula_sum   'Li8 Co2 O2 F8'
_cell_volume   179.44537026
_cell_formula_units_Z   2
loop_
 _symmetry_equiv_pos_site_id
 _symmetry_equiv_pos_as_xyz
  1  'x, y, z'
loop_
 _atom_site_type_symbol
 _atom_site_label
 _atom_site_symmetry_multiplicity
 _atom_site_fract_x
 _atom_site_fract_y
 _atom_site_fract_z
 _atom_site_occupancy
  Li  Li0  1  0.50000000  0.50000000  0.10326600  1
  Li  Li1  1  0.00000000  0.00000000  0.39673400  1
  Li  Li2  1  0.50000000  0.50000000  0.29776038  1
  Li  Li3  1  0.00000000  0.00000000  0.20223962  1
  Li  Li4  1  0.00000000  0.00000000  0.60326600  1
  Li  Li5  1  0.50000000  0.50000000  0.89673400  1
  Li  Li6  1  0.00000000  0.00000000  0.79776038  1
  Li  Li7  1  0.50000000  0.50000000  0.70223962  1
  Co  Co8  1  0.50000000  0.50000000  0.50000000  1
  Co  Co9  1  0.00000000  0.00000000  0.00000000  1
  O  O10  1  0.00000000  0.00000000  0.50000000  1
  O  O11  1  0.50000000  0.50000000  0.00000000  1
  F  F12  1  0.00000000  0.00000000  0.10603850  1
  F  F13  1  0.50000000  0.50000000  0.39396150  1
  F  F14  1  0.00000000  0.00000000  0.29847650  1
  F  F15  1  0.50000000  0.50000000  0.20152350  1
  F  F16  1  0.50000000  0.50000000  0.60603850  1
  F  F17  1  0.00000000  0.00000000  0.89396150  1
  F  F18  1  0.50000000  0.50000000  0.79847650  1
  F  F19  1  0.00000000  0.00000000  0.70152350  1
