# generated using pymatgen
data_Li2CoSi3O8
_symmetry_space_group_name_H-M   'P 1'
_cell_length_a   6.50039127
_cell_length_b   8.59031100
_cell_length_c   6.67498494
_cell_angle_alpha   90.00000000
_cell_angle_beta   106.02009029
_cell_angle_gamma   90.00000000
_symmetry_Int_Tables_number   1
_chemical_formula_structural   Li2CoSi3O8
_chemical_formula_sum   'Li4 Co2 Si6 O16'
_cell_volume   358.25859447
_cell_formula_units_Z   2
loop_
 _symmetry_equiv_pos_site_id
 _symmetry_equiv_pos_as_xyz
  1  'x, y, z'
loop_
 _atom_site_type_symbol
 _atom_site_label
 _atom_site_symmetry_multiplicity
 _atom_site_fract_x
 _atom_site_fract_y
 _atom_site_fract_z
 _atom_site_occupancy
  Li  Li0  1  0.86881900  0.69524100  0.25288150  1
  Li  Li1  1  0.13118100  0.19524100  0.74711850  1
  Li  Li2  1  0.52462050  0.22495650  0.50106050  1
  Li  Li3  1  0.47537950  0.72495650  0.49893950  1
  Co  Co4  1  0.03715350  0.00052000  0.38942950  1
  Co  Co5  1  0.96284650  0.50052000  0.61057050  1
  Si  Si6  1  0.40443650  0.47487250  0.03183350  1
  Si  Si7  1  0.59556350  0.97487250  0.96816650  1
  Si  Si8  1  0.24915150  0.80592900  0.09336250  1
  Si  Si9  1  0.75084850  0.30592900  0.90663750  1
  Si  Si10  1  0.14263050  0.33714750  0.28383450  1
  Si  Si11  1  0.85736950  0.83714750  0.71616550  1
  O  O12  1  0.98245550  0.26010450  0.06800250  1
  O  O13  1  0.01754450  0.76010450  0.93199750  1
  O  O14  1  0.35216300  0.95005900  0.99091550  1
  O  O15  1  0.64783700  0.45005900  0.00908450  1
  O  O16  1  0.41318400  0.65667800  0.11398450  1
  O  O17  1  0.58681600  0.15667800  0.88601550  1
  O  O18  1  0.77723000  0.93438450  0.17715350  1
  O  O19  1  0.22277000  0.43438450  0.82284650  1
  O  O20  1  0.37860900  0.36565400  0.23083150  1
  O  O21  1  0.62139100  0.86565400  0.76916850  1
  O  O22  1  0.23205900  0.84061650  0.32595350  1
  O  O23  1  0.76794100  0.34061650  0.67404650  1
  O  O24  1  0.04825000  0.49735700  0.34834050  1
  O  O25  1  0.95175000  0.99735700  0.65165950  1
  O  O26  1  0.20075000  0.20130750  0.46185050  1
  O  O27  1  0.79925000  0.70130750  0.53814950  1
