# generated using pymatgen
data_Li4Co3Ni2Sn3O16
_symmetry_space_group_name_H-M   'P 1'
_cell_length_a   10.31233668
_cell_length_b   5.98356673
_cell_length_c   9.64326811
_cell_angle_alpha   90.00000000
_cell_angle_beta   90.41426727
_cell_angle_gamma   90.00000000
_symmetry_Int_Tables_number   1
_chemical_formula_structural   Li4Co3Ni2Sn3O16
_chemical_formula_sum   'Li8 Co6 Ni4 Sn6 O32'
_cell_volume   595.01801113
_cell_formula_units_Z   2
loop_
 _symmetry_equiv_pos_site_id
 _symmetry_equiv_pos_as_xyz
  1  'x, y, z'
loop_
 _atom_site_type_symbol
 _atom_site_label
 _atom_site_symmetry_multiplicity
 _atom_site_fract_x
 _atom_site_fract_y
 _atom_site_fract_z
 _atom_site_occupancy
  Li  Li0  1  0.82112050  0.50000000  0.88515300  1
  Li  Li1  1  0.52499700  0.50000000  0.99229100  1
  Li  Li2  1  0.51794600  0.50000000  0.50282100  1
  Li  Li3  1  0.15753600  0.50000000  0.39896700  1
  Li  Li4  1  0.32112050  0.00000000  0.88515300  1
  Li  Li5  1  0.02499700  0.00000000  0.99229100  1
  Li  Li6  1  0.01794600  0.00000000  0.50282100  1
  Li  Li7  1  0.65753600  0.00000000  0.39896700  1
  Co  Co8  1  0.66793850  0.50000000  0.21507000  1
  Co  Co9  1  0.08226600  0.74637600  0.71415800  1
  Co  Co10  1  0.08226600  0.25362400  0.71415800  1
  Co  Co11  1  0.16793850  0.00000000  0.21507000  1
  Co  Co12  1  0.58226600  0.24637600  0.71415800  1
  Co  Co13  1  0.58226600  0.75362400  0.71415800  1
  Ni  Ni14  1  0.83549800  0.50000000  0.49429400  1
  Ni  Ni15  1  0.16646450  0.50000000  0.98699300  1
  Ni  Ni16  1  0.33549800  0.00000000  0.49429400  1
  Ni  Ni17  1  0.66646450  0.00000000  0.98699300  1
  Sn  Sn18  1  0.91375850  0.74761850  0.21419900  1
  Sn  Sn19  1  0.91375850  0.25238150  0.21419900  1
  Sn  Sn20  1  0.32943250  0.50000000  0.71499600  1
  Sn  Sn21  1  0.41375850  0.24761850  0.21419900  1
  Sn  Sn22  1  0.41375850  0.75238150  0.21419900  1
  Sn  Sn23  1  0.82943250  0.00000000  0.71499600  1
  O  O24  1  0.93022500  0.75766400  0.60183700  1
  O  O25  1  0.98099150  0.50000000  0.34447600  1
  O  O26  1  0.82136400  0.50000000  0.09822900  1
  O  O27  1  0.51172100  0.50000000  0.31871700  1
  O  O28  1  0.50979850  0.50000000  0.81034600  1
  O  O29  1  0.93022500  0.24233600  0.60183700  1
  O  O30  1  0.74732650  0.71651350  0.33445000  1
  O  O31  1  0.74732650  0.28348650  0.33445000  1
  O  O32  1  0.34428550  0.50000000  0.08764900  1
  O  O33  1  0.66103450  0.50000000  0.61958300  1
  O  O34  1  0.22771450  0.72991250  0.83445100  1
  O  O35  1  0.22771450  0.27008750  0.83445100  1
  O  O36  1  0.15371200  0.50000000  0.60799300  1
  O  O37  1  0.08915150  0.76796750  0.10615100  1
  O  O38  1  0.01528500  0.50000000  0.82002500  1
  O  O39  1  0.08915150  0.23203250  0.10615100  1
  O  O40  1  0.43022500  0.25766400  0.60183700  1
  O  O41  1  0.48099150  0.00000000  0.34447600  1
  O  O42  1  0.32136400  0.00000000  0.09822900  1
  O  O43  1  0.01172100  0.00000000  0.31871700  1
  O  O44  1  0.00979850  0.00000000  0.81034600  1
  O  O45  1  0.43022500  0.74233600  0.60183700  1
  O  O46  1  0.24732650  0.21651350  0.33445000  1
  O  O47  1  0.24732650  0.78348650  0.33445000  1
  O  O48  1  0.84428550  0.00000000  0.08764900  1
  O  O49  1  0.16103450  0.00000000  0.61958300  1
  O  O50  1  0.72771450  0.22991250  0.83445100  1
  O  O51  1  0.72771450  0.77008750  0.83445100  1
  O  O52  1  0.65371200  0.00000000  0.60799300  1
  O  O53  1  0.58915150  0.26796750  0.10615100  1
  O  O54  1  0.51528500  0.00000000  0.82002500  1
  O  O55  1  0.58915150  0.73203250  0.10615100  1
