# generated using pymatgen
data_LiLa2Ti2CrO9
_symmetry_space_group_name_H-M   'P 1'
_cell_length_a   5.47594500
_cell_length_b   5.55451600
_cell_length_c   23.41397227
_cell_angle_alpha   90.00000000
_cell_angle_beta   90.01886451
_cell_angle_gamma   90.00000000
_symmetry_Int_Tables_number   1
_chemical_formula_structural   LiLa2Ti2CrO9
_chemical_formula_sum   'Li4 La8 Ti8 Cr4 O36'
_cell_volume   712.16458942
_cell_formula_units_Z   4
loop_
 _symmetry_equiv_pos_site_id
 _symmetry_equiv_pos_as_xyz
  1  'x, y, z'
loop_
 _atom_site_type_symbol
 _atom_site_label
 _atom_site_symmetry_multiplicity
 _atom_site_fract_x
 _atom_site_fract_y
 _atom_site_fract_z
 _atom_site_occupancy
  Li  Li0  1  0.75015100  0.58105100  0.50028500  1
  Li  Li1  1  0.75886900  0.56234400  0.83226300  1
  Li  Li2  1  0.24113100  0.06234400  0.16773700  1
  Li  Li3  1  0.24984900  0.08105100  0.49971500  1
  La  La4  1  0.75853800  0.46710400  0.16751300  1
  La  La5  1  0.24146200  0.96710400  0.83248700  1
  La  La6  1  0.25572100  0.02931200  0.33343900  1
  La  La7  1  0.25656900  0.02834900  0.00231300  1
  La  La8  1  0.25586400  0.02674000  0.66395300  1
  La  La9  1  0.74413600  0.52674000  0.33604700  1
  La  La10  1  0.74427900  0.52931200  0.66656100  1
  La  La11  1  0.74343100  0.52834900  0.99768700  1
  Ti  Ti12  1  0.75357400  0.01520200  0.57632400  1
  Ti  Ti13  1  0.75346000  0.01586600  0.42368800  1
  Ti  Ti14  1  0.74981800  0.99114100  0.08908800  1
  Ti  Ti15  1  0.75040900  0.00405800  0.75279000  1
  Ti  Ti16  1  0.24654000  0.51586600  0.57631200  1
  Ti  Ti17  1  0.25018200  0.49114100  0.91091200  1
  Ti  Ti18  1  0.24959100  0.50405800  0.24721000  1
  Ti  Ti19  1  0.24642600  0.51520200  0.42367600  1
  Cr  Cr20  1  0.74912600  0.99483500  0.24997500  1
  Cr  Cr21  1  0.74961500  0.99987900  0.91551200  1
  Cr  Cr22  1  0.25038500  0.49987900  0.08448800  1
  Cr  Cr23  1  0.25087400  0.49483500  0.75002500  1
  O  O24  1  0.64578400  0.99059700  0.49998500  1
  O  O25  1  0.65805000  0.00481600  0.16658500  1
  O  O26  1  0.68239800  0.00834100  0.83156500  1
  O  O27  1  0.96156600  0.69418800  0.56907900  1
  O  O28  1  0.95756600  0.69328800  0.43003300  1
  O  O29  1  0.96070900  0.70056100  0.24281900  1
  O  O30  1  0.95470000  0.70672200  0.09334600  1
  O  O31  1  0.96855600  0.70679500  0.90108600  1
  O  O32  1  0.96340500  0.71274100  0.76422300  1
  O  O33  1  0.04243400  0.19328800  0.56996700  1
  O  O34  1  0.03843400  0.19418800  0.43092100  1
  O  O35  1  0.03659500  0.21274100  0.23577700  1
  O  O36  1  0.03144400  0.20679500  0.09891400  1
  O  O37  1  0.04530000  0.20672200  0.90665400  1
  O  O38  1  0.03929100  0.20056100  0.75718100  1
  O  O39  1  0.35421600  0.49059700  0.50001500  1
  O  O40  1  0.31760200  0.50834100  0.16843500  1
  O  O41  1  0.34195000  0.50481600  0.83341500  1
  O  O42  1  0.18020500  0.47457800  0.33551700  1
  O  O43  1  0.17867400  0.48619100  0.66432800  1
  O  O44  1  0.18009400  0.48595800  0.99980400  1
  O  O45  1  0.46747700  0.76163100  0.40174100  1
  O  O46  1  0.46734800  0.78162800  0.73684000  1
  O  O47  1  0.47921400  0.77194000  0.06784200  1
  O  O48  1  0.46128000  0.77848100  0.92870600  1
  O  O49  1  0.47157600  0.76540200  0.26679100  1
  O  O50  1  0.47372000  0.76026100  0.59763400  1
  O  O51  1  0.52628000  0.26026100  0.40236600  1
  O  O52  1  0.52842400  0.26540200  0.73320900  1
  O  O53  1  0.53872000  0.27848100  0.07129400  1
  O  O54  1  0.53265200  0.28162800  0.26316000  1
  O  O55  1  0.52078600  0.27194000  0.93215800  1
  O  O56  1  0.53252300  0.26163100  0.59825900  1
  O  O57  1  0.82132600  0.98619100  0.33567200  1
  O  O58  1  0.81990600  0.98595800  0.00019600  1
  O  O59  1  0.81979500  0.97457800  0.66448300  1
