# generated using pymatgen
data_Li3Mn(OF)2
_symmetry_space_group_name_H-M   'P 1'
_cell_length_a   8.72476000
_cell_length_b   8.16913200
_cell_length_c   9.39338851
_cell_angle_alpha   90.00000000
_cell_angle_beta   117.43986630
_cell_angle_gamma   90.00000000
_symmetry_Int_Tables_number   1
_chemical_formula_structural   Li3Mn(OF)2
_chemical_formula_sum   'Li24 Mn8 O16 F16'
_cell_volume   594.17939260
_cell_formula_units_Z   8
loop_
 _symmetry_equiv_pos_site_id
 _symmetry_equiv_pos_as_xyz
  1  'x, y, z'
loop_
 _atom_site_type_symbol
 _atom_site_label
 _atom_site_symmetry_multiplicity
 _atom_site_fract_x
 _atom_site_fract_y
 _atom_site_fract_z
 _atom_site_occupancy
  Li  Li0  1  0.57764000  0.87468800  0.13267500  1
  Li  Li1  1  0.07764000  0.62531200  0.63267500  1
  Li  Li2  1  0.92741500  0.87470700  0.36887100  1
  Li  Li3  1  0.31460250  0.14143250  0.12493100  1
  Li  Li4  1  0.68182850  0.12172050  0.38126600  1
  Li  Li5  1  0.55372000  0.37551000  0.12375100  1
  Li  Li6  1  0.92741500  0.12529300  0.86887100  1
  Li  Li7  1  0.81460250  0.35856750  0.62493100  1
  Li  Li8  1  0.18182850  0.37827950  0.88126600  1
  Li  Li9  1  0.55372000  0.62449000  0.62375100  1
  Li  Li10  1  0.43881850  0.88000650  0.35654800  1
  Li  Li11  1  0.93881850  0.61999350  0.85654800  1
  Li  Li12  1  0.07764000  0.37468800  0.13267500  1
  Li  Li13  1  0.57764000  0.12531200  0.63267500  1
  Li  Li14  1  0.42741500  0.37470700  0.36887100  1
  Li  Li15  1  0.81460250  0.64143250  0.12493100  1
  Li  Li16  1  0.18182850  0.62172050  0.38126600  1
  Li  Li17  1  0.05372000  0.87551000  0.12375100  1
  Li  Li18  1  0.42741500  0.62529300  0.86887100  1
  Li  Li19  1  0.31460250  0.85856750  0.62493100  1
  Li  Li20  1  0.68182850  0.87827950  0.88126600  1
  Li  Li21  1  0.05372000  0.12449000  0.62375100  1
  Li  Li22  1  0.93881850  0.38000650  0.35654800  1
  Li  Li23  1  0.43881850  0.11999350  0.85654800  1
  Mn  Mn24  1  0.81769550  0.11790550  0.11600000  1
  Mn  Mn25  1  0.81769550  0.88209450  0.61600000  1
  Mn  Mn26  1  0.69279500  0.63270900  0.37665400  1
  Mn  Mn27  1  0.69279500  0.36729100  0.87665400  1
  Mn  Mn28  1  0.31769550  0.61790550  0.11600000  1
  Mn  Mn29  1  0.31769550  0.38209450  0.61600000  1
  Mn  Mn30  1  0.19279500  0.13270900  0.37665400  1
  Mn  Mn31  1  0.19279500  0.86729100  0.87665400  1
  O  O32  1  0.57122650  0.62325550  0.14868300  1
  O  O33  1  0.07122650  0.87674450  0.64868300  1
  O  O34  1  0.81282800  0.89049100  0.12484800  1
  O  O35  1  0.30381150  0.85787550  0.10850500  1
  O  O36  1  0.81282800  0.10950900  0.62484800  1
  O  O37  1  0.80381150  0.64212450  0.60850500  1
  O  O38  1  0.68502900  0.86651700  0.37830000  1
  O  O39  1  0.18502900  0.63348300  0.87830000  1
  O  O40  1  0.07122650  0.12325550  0.14868300  1
  O  O41  1  0.57122650  0.37674450  0.64868300  1
  O  O42  1  0.31282800  0.39049100  0.12484800  1
  O  O43  1  0.80381150  0.35787550  0.10850500  1
  O  O44  1  0.31282800  0.60950900  0.62484800  1
  O  O45  1  0.30381150  0.14212450  0.60850500  1
  O  O46  1  0.18502900  0.36651700  0.37830000  1
  O  O47  1  0.68502900  0.13348300  0.87830000  1
  F  F48  1  0.94453150  0.62388250  0.37146500  1
  F  F49  1  0.94453150  0.37611750  0.87146500  1
  F  F50  1  0.69511700  0.38453900  0.38343800  1
  F  F51  1  0.55921500  0.12818400  0.13069000  1
  F  F52  1  0.69511700  0.61546100  0.88343800  1
  F  F53  1  0.55921500  0.87181600  0.63069000  1
  F  F54  1  0.42372600  0.62690700  0.37337400  1
  F  F55  1  0.92372600  0.87309300  0.87337400  1
  F  F56  1  0.44453150  0.12388250  0.37146500  1
  F  F57  1  0.44453150  0.87611750  0.87146500  1
  F  F58  1  0.19511700  0.88453900  0.38343800  1
  F  F59  1  0.05921500  0.62818400  0.13069000  1
  F  F60  1  0.19511700  0.11546100  0.88343800  1
  F  F61  1  0.05921500  0.37181600  0.63069000  1
  F  F62  1  0.92372600  0.12690700  0.37337400  1
  F  F63  1  0.42372600  0.37309300  0.87337400  1
