# generated using pymatgen
data_Li2V12O29
_symmetry_space_group_name_H-M   'P 1'
_cell_length_a   28.32433200
_cell_length_b   3.67695400
_cell_length_c   10.37556619
_cell_angle_alpha   90.00000000
_cell_angle_beta   101.77508689
_cell_angle_gamma   90.00000000
_symmetry_Int_Tables_number   1
_chemical_formula_structural   Li2V12O29
_chemical_formula_sum   'Li4 V24 O58'
_cell_volume   1057.84721232
_cell_formula_units_Z   2
loop_
 _symmetry_equiv_pos_site_id
 _symmetry_equiv_pos_as_xyz
  1  'x, y, z'
loop_
 _atom_site_type_symbol
 _atom_site_label
 _atom_site_symmetry_multiplicity
 _atom_site_fract_x
 _atom_site_fract_y
 _atom_site_fract_z
 _atom_site_occupancy
  Li  Li0  1  0.25068700  0.50000000  0.40167600  1
  Li  Li1  1  0.24931300  0.00000000  0.59832400  1
  Li  Li2  1  0.75068700  0.00000000  0.40167600  1
  Li  Li3  1  0.74931300  0.50000000  0.59832400  1
  V  V4  1  0.43774300  0.50000000  0.90956900  1
  V  V5  1  0.35160600  0.50000000  0.64307600  1
  V  V6  1  0.32337200  0.50000000  0.96718200  1
  V  V7  1  0.19620000  0.50000000  0.79834300  1
  V  V8  1  0.10750900  0.50000000  0.54140000  1
  V  V9  1  0.08525800  0.50000000  0.86166300  1
  V  V10  1  0.41474200  0.00000000  0.13833700  1
  V  V11  1  0.39249100  0.00000000  0.45860000  1
  V  V12  1  0.30380000  0.00000000  0.20165700  1
  V  V13  1  0.17662800  0.00000000  0.03281800  1
  V  V14  1  0.14839400  0.00000000  0.35692400  1
  V  V15  1  0.06225700  0.00000000  0.09043100  1
  V  V16  1  0.93774300  0.00000000  0.90956900  1
  V  V17  1  0.85160600  0.00000000  0.64307600  1
  V  V18  1  0.82337200  0.00000000  0.96718200  1
  V  V19  1  0.69620000  0.00000000  0.79834300  1
  V  V20  1  0.60750900  0.00000000  0.54140000  1
  V  V21  1  0.58525800  0.00000000  0.86166300  1
  V  V22  1  0.91474200  0.50000000  0.13833700  1
  V  V23  1  0.89249100  0.50000000  0.45860000  1
  V  V24  1  0.80380000  0.50000000  0.20165700  1
  V  V25  1  0.67662800  0.50000000  0.03281800  1
  V  V26  1  0.64839400  0.50000000  0.35692400  1
  V  V27  1  0.56225700  0.50000000  0.09043100  1
  O  O28  1  0.44072500  0.50000000  0.75472800  1
  O  O29  1  0.40120700  0.50000000  0.08908700  1
  O  O30  1  0.37611100  0.50000000  0.47550400  1
  O  O31  1  0.35920200  0.50000000  0.83848700  1
  O  O32  1  0.30635100  0.50000000  0.14363500  1
  O  O33  1  0.29090800  0.50000000  0.59100500  1
  O  O34  1  0.26712100  0.50000000  0.87408000  1
  O  O35  1  0.20363600  0.50000000  0.64251000  1
  O  O36  1  0.12971100  0.50000000  0.37304700  1
  O  O37  1  0.16759800  0.50000000  0.98555200  1
  O  O38  1  0.12187600  0.50000000  0.72940300  1
  O  O39  1  0.07155700  0.50000000  0.04655500  1
  O  O40  1  0.05016000  0.50000000  0.51003100  1
  O  O41  1  0.03146100  0.50000000  0.77718300  1
  O  O42  1  0.46853900  0.00000000  0.22281700  1
  O  O43  1  0.00000000  0.00000000  0.00000000  1
  O  O44  1  0.44984000  0.00000000  0.48996900  1
  O  O45  1  0.42844300  0.00000000  0.95344500  1
  O  O46  1  0.37812400  0.00000000  0.27059700  1
  O  O47  1  0.33240200  0.00000000  0.01444800  1
  O  O48  1  0.37028900  0.00000000  0.62695300  1
  O  O49  1  0.29636400  0.00000000  0.35749000  1
  O  O50  1  0.23287900  0.00000000  0.12592000  1
  O  O51  1  0.20909200  0.00000000  0.40899500  1
  O  O52  1  0.19364900  0.00000000  0.85636500  1
  O  O53  1  0.14079800  0.00000000  0.16151300  1
  O  O54  1  0.12388900  0.00000000  0.52449600  1
  O  O55  1  0.09879300  0.00000000  0.91091300  1
  O  O56  1  0.05927500  0.00000000  0.24527200  1
  O  O57  1  0.94072500  0.00000000  0.75472800  1
  O  O58  1  0.90120700  0.00000000  0.08908700  1
  O  O59  1  0.87611100  0.00000000  0.47550400  1
  O  O60  1  0.85920200  0.00000000  0.83848700  1
  O  O61  1  0.80635100  0.00000000  0.14363500  1
  O  O62  1  0.79090800  0.00000000  0.59100500  1
  O  O63  1  0.76712100  0.00000000  0.87408000  1
  O  O64  1  0.70363600  0.00000000  0.64251000  1
  O  O65  1  0.62971100  0.00000000  0.37304700  1
  O  O66  1  0.66759800  0.00000000  0.98555200  1
  O  O67  1  0.62187600  0.00000000  0.72940300  1
  O  O68  1  0.57155700  0.00000000  0.04655500  1
  O  O69  1  0.55016000  0.00000000  0.51003100  1
  O  O70  1  0.53146100  0.00000000  0.77718300  1
  O  O71  1  0.96853900  0.50000000  0.22281700  1
  O  O72  1  0.50000000  0.50000000  0.00000000  1
  O  O73  1  0.94984000  0.50000000  0.48996900  1
  O  O74  1  0.92844300  0.50000000  0.95344500  1
  O  O75  1  0.87812400  0.50000000  0.27059700  1
  O  O76  1  0.83240200  0.50000000  0.01444800  1
  O  O77  1  0.87028900  0.50000000  0.62695300  1
  O  O78  1  0.79636400  0.50000000  0.35749000  1
  O  O79  1  0.73287900  0.50000000  0.12592000  1
  O  O80  1  0.70909200  0.50000000  0.40899500  1
  O  O81  1  0.69364900  0.50000000  0.85636500  1
  O  O82  1  0.64079800  0.50000000  0.16151300  1
  O  O83  1  0.62388900  0.50000000  0.52449600  1
  O  O84  1  0.59879300  0.50000000  0.91091300  1
  O  O85  1  0.55927500  0.50000000  0.24527200  1
