# generated using pymatgen
data_NaMn10O20
_symmetry_space_group_name_H-M   'P 1'
_cell_length_a   13.19678200
_cell_length_b   13.19678200
_cell_length_c   8.34572000
_cell_angle_alpha   90.00000000
_cell_angle_beta   90.00000000
_cell_angle_gamma   90.00000000
_symmetry_Int_Tables_number   1
_chemical_formula_structural   NaMn10O20
_chemical_formula_sum   'Na4 Mn40 O80'
_cell_volume   1453.44932691
_cell_formula_units_Z   4
loop_
 _symmetry_equiv_pos_site_id
 _symmetry_equiv_pos_as_xyz
  1  'x, y, z'
loop_
 _atom_site_type_symbol
 _atom_site_label
 _atom_site_symmetry_multiplicity
 _atom_site_fract_x
 _atom_site_fract_y
 _atom_site_fract_z
 _atom_site_occupancy
  Na  Na0  1  0.50000000  0.00000000  0.25000000  1
  Na  Na1  1  0.00000000  0.00000000  0.00000000  1
  Na  Na2  1  0.00000000  0.50000000  0.75000000  1
  Na  Na3  1  0.50000000  0.50000000  0.50000000  1
  Mn  Mn4  1  0.39894150  0.05066950  0.87093450  1
  Mn  Mn5  1  0.34834700  0.20212800  0.12351000  1
  Mn  Mn6  1  0.44933050  0.89894150  0.62906550  1
  Mn  Mn7  1  0.25000000  0.00000000  0.12500000  1
  Mn  Mn8  1  0.20212800  0.15165300  0.87351000  1
  Mn  Mn9  1  0.29787200  0.84834700  0.37649000  1
  Mn  Mn10  1  0.60105850  0.94933050  0.87093450  1
  Mn  Mn11  1  0.65165300  0.79787200  0.12351000  1
  Mn  Mn12  1  0.50000000  0.75000000  0.37500000  1
  Mn  Mn13  1  0.70212800  0.15165300  0.37649000  1
  Mn  Mn14  1  0.65165300  0.29787200  0.62649000  1
  Mn  Mn15  1  0.10105850  0.94933050  0.37906550  1
  Mn  Mn16  1  0.55066950  0.60105850  0.12093450  1
  Mn  Mn17  1  0.34834700  0.70212800  0.62649000  1
  Mn  Mn18  1  0.55066950  0.10105850  0.62906550  1
  Mn  Mn19  1  0.44933050  0.39894150  0.12093450  1
  Mn  Mn20  1  0.50000000  0.25000000  0.37500000  1
  Mn  Mn21  1  0.89894150  0.05066950  0.37906550  1
  Mn  Mn22  1  0.79787200  0.84834700  0.87351000  1
  Mn  Mn23  1  0.75000000  0.00000000  0.12500000  1
  Mn  Mn24  1  0.89894150  0.55066950  0.37093450  1
  Mn  Mn25  1  0.84834700  0.70212800  0.62351000  1
  Mn  Mn26  1  0.94933050  0.39894150  0.12906550  1
  Mn  Mn27  1  0.75000000  0.50000000  0.62500000  1
  Mn  Mn28  1  0.70212800  0.65165300  0.37351000  1
  Mn  Mn29  1  0.79787200  0.34834700  0.87649000  1
  Mn  Mn30  1  0.10105850  0.44933050  0.37093450  1
  Mn  Mn31  1  0.15165300  0.29787200  0.62351000  1
  Mn  Mn32  1  0.00000000  0.25000000  0.87500000  1
  Mn  Mn33  1  0.20212800  0.65165300  0.87649000  1
  Mn  Mn34  1  0.15165300  0.79787200  0.12649000  1
  Mn  Mn35  1  0.60105850  0.44933050  0.87906550  1
  Mn  Mn36  1  0.05066950  0.10105850  0.62093450  1
  Mn  Mn37  1  0.84834700  0.20212800  0.12649000  1
  Mn  Mn38  1  0.05066950  0.60105850  0.12906550  1
  Mn  Mn39  1  0.94933050  0.89894150  0.62093450  1
  Mn  Mn40  1  0.00000000  0.75000000  0.87500000  1
  Mn  Mn41  1  0.39894150  0.55066950  0.87906550  1
  Mn  Mn42  1  0.29787200  0.34834700  0.37351000  1
  Mn  Mn43  1  0.25000000  0.50000000  0.62500000  1
  O  O44  1  0.58686600  0.95656800  0.63976700  1
  O  O45  1  0.41313400  0.04343200  0.63976700  1
  O  O46  1  0.45656800  0.91313400  0.86023300  1
  O  O47  1  0.44149850  0.88430250  0.39591650  1
  O  O48  1  0.38430250  0.05850150  0.10408350  1
  O  O49  1  0.34346100  0.18851200  0.88882400  1
  O  O50  1  0.31148800  0.84346100  0.61117600  1
  O  O51  1  0.25507000  0.01355500  0.88965700  1
  O  O52  1  0.21151850  0.14395850  0.10730650  1
  O  O53  1  0.65653900  0.81148800  0.88882400  1
  O  O54  1  0.35604150  0.71151850  0.39269350  1
  O  O55  1  0.28848150  0.85604150  0.14269350  1
  O  O56  1  0.18851200  0.15653900  0.63882400  1
  O  O57  1  0.24493000  0.98644500  0.36034300  1
  O  O58  1  0.64395850  0.78848150  0.35730650  1
  O  O59  1  0.65653900  0.31148800  0.86117600  1
  O  O60  1  0.11569750  0.94149850  0.14591650  1
  O  O61  1  0.55850150  0.61569750  0.35408350  1
  O  O62  1  0.51355500  0.74493000  0.13965700  1
  O  O63  1  0.71151850  0.14395850  0.14269350  1
  O  O64  1  0.64395850  0.28848150  0.39269350  1
  O  O65  1  0.08686600  0.95656800  0.61023300  1
  O  O66  1  0.68851200  0.15653900  0.61117600  1
  O  O67  1  0.54343200  0.58686600  0.88976700  1
  O  O68  1  0.48644500  0.75507000  0.61034300  1
  O  O69  1  0.51355500  0.24493000  0.61034300  1
  O  O70  1  0.55850150  0.11569750  0.39591650  1
  O  O71  1  0.91313400  0.04343200  0.61023300  1
  O  O72  1  0.45656800  0.41313400  0.88976700  1
  O  O73  1  0.88430250  0.05850150  0.14591650  1
  O  O74  1  0.48644500  0.25507000  0.13965700  1
  O  O75  1  0.54343200  0.08686600  0.86023300  1
  O  O76  1  0.44149850  0.38430250  0.35408350  1
  O  O77  1  0.34346100  0.68851200  0.86117600  1
  O  O78  1  0.75507000  0.01355500  0.36034300  1
  O  O79  1  0.81148800  0.84346100  0.63882400  1
  O  O80  1  0.35604150  0.21151850  0.35730650  1
  O  O81  1  0.78848150  0.85604150  0.10730650  1
  O  O82  1  0.74493000  0.98644500  0.88965700  1
  O  O83  1  0.61569750  0.94149850  0.10408350  1
  O  O84  1  0.08686600  0.45656800  0.13976700  1
  O  O85  1  0.91313400  0.54343200  0.13976700  1
  O  O86  1  0.95656800  0.41313400  0.36023300  1
  O  O87  1  0.94149850  0.38430250  0.89591650  1
  O  O88  1  0.88430250  0.55850150  0.60408350  1
  O  O89  1  0.84346100  0.68851200  0.38882400  1
  O  O90  1  0.81148800  0.34346100  0.11117600  1
  O  O91  1  0.75507000  0.51355500  0.38965700  1
  O  O92  1  0.71151850  0.64395850  0.60730650  1
  O  O93  1  0.15653900  0.31148800  0.38882400  1
  O  O94  1  0.85604150  0.21151850  0.89269350  1
  O  O95  1  0.78848150  0.35604150  0.64269350  1
  O  O96  1  0.68851200  0.65653900  0.13882400  1
  O  O97  1  0.74493000  0.48644500  0.86034300  1
  O  O98  1  0.14395850  0.28848150  0.85730650  1
  O  O99  1  0.15653900  0.81148800  0.36117600  1
  O  O100  1  0.61569750  0.44149850  0.64591650  1
  O  O101  1  0.05850150  0.11569750  0.85408350  1
  O  O102  1  0.01355500  0.24493000  0.63965700  1
  O  O103  1  0.21151850  0.64395850  0.64269350  1
  O  O104  1  0.14395850  0.78848150  0.89269350  1
  O  O105  1  0.58686600  0.45656800  0.11023300  1
  O  O106  1  0.18851200  0.65653900  0.11117600  1
  O  O107  1  0.04343200  0.08686600  0.38976700  1
  O  O108  1  0.98644500  0.25507000  0.11034300  1
  O  O109  1  0.01355500  0.74493000  0.11034300  1
  O  O110  1  0.05850150  0.61569750  0.89591650  1
  O  O111  1  0.41313400  0.54343200  0.11023300  1
  O  O112  1  0.95656800  0.91313400  0.38976700  1
  O  O113  1  0.38430250  0.55850150  0.64591650  1
  O  O114  1  0.98644500  0.75507000  0.63965700  1
  O  O115  1  0.04343200  0.58686600  0.36023300  1
  O  O116  1  0.94149850  0.88430250  0.85408350  1
  O  O117  1  0.84346100  0.18851200  0.36117600  1
  O  O118  1  0.25507000  0.51355500  0.86034300  1
  O  O119  1  0.31148800  0.34346100  0.13882400  1
  O  O120  1  0.85604150  0.71151850  0.85730650  1
  O  O121  1  0.28848150  0.35604150  0.60730650  1
  O  O122  1  0.24493000  0.48644500  0.38965700  1
  O  O123  1  0.11569750  0.44149850  0.60408350  1
