# generated using pymatgen
data_Li4Mn5NbO12
_symmetry_space_group_name_H-M   'P 1'
_cell_length_a   5.52778328
_cell_length_b   8.94027928
_cell_length_c   10.64035366
_cell_angle_alpha   90.00000000
_cell_angle_beta   99.74958431
_cell_angle_gamma   90.00000000
_symmetry_Int_Tables_number   1
_chemical_formula_structural   Li4Mn5NbO12
_chemical_formula_sum   'Li8 Mn10 Nb2 O24'
_cell_volume   518.25085846
_cell_formula_units_Z   2
loop_
 _symmetry_equiv_pos_site_id
 _symmetry_equiv_pos_as_xyz
  1  'x, y, z'
loop_
 _atom_site_type_symbol
 _atom_site_label
 _atom_site_symmetry_multiplicity
 _atom_site_fract_x
 _atom_site_fract_y
 _atom_site_fract_z
 _atom_site_occupancy
  Li  Li0  1  0.25471125  0.17787925  0.79103000  1
  Li  Li1  1  0.74528875  0.17787925  0.20897000  1
  Li  Li2  1  0.25471125  0.82212075  0.79103000  1
  Li  Li3  1  0.74528875  0.82212075  0.20897000  1
  Li  Li4  1  0.75471125  0.67787925  0.79103000  1
  Li  Li5  1  0.24528875  0.67787925  0.20897000  1
  Li  Li6  1  0.75471125  0.32212075  0.79103000  1
  Li  Li7  1  0.24528875  0.32212075  0.20897000  1
  Mn  Mn8  1  0.50000000  0.66434650  0.00000000  1
  Mn  Mn9  1  0.50000000  0.16555525  0.50000000  1
  Mn  Mn10  1  0.50000000  0.83444475  0.50000000  1
  Mn  Mn11  1  0.50000000  0.00000000  0.00000000  1
  Mn  Mn12  1  0.50000000  0.33565350  0.00000000  1
  Mn  Mn13  1  0.00000000  0.16434650  0.00000000  1
  Mn  Mn14  1  0.00000000  0.66555525  0.50000000  1
  Mn  Mn15  1  0.00000000  0.33444475  0.50000000  1
  Mn  Mn16  1  0.00000000  0.50000000  0.00000000  1
  Mn  Mn17  1  0.00000000  0.83565350  0.00000000  1
  Nb  Nb18  1  0.50000000  0.50000000  0.50000000  1
  Nb  Nb19  1  0.00000000  0.00000000  0.50000000  1
  O  O20  1  0.15685175  0.00000000  0.90952500  1
  O  O21  1  0.84314825  0.00000000  0.09047500  1
  O  O22  1  0.30476000  0.00000000  0.41231800  1
  O  O23  1  0.69524000  0.00000000  0.58768200  1
  O  O24  1  0.33253400  0.33029100  0.39602000  1
  O  O25  1  0.66746600  0.33029100  0.60398000  1
  O  O26  1  0.33253400  0.66970900  0.39602000  1
  O  O27  1  0.66746600  0.66970900  0.60398000  1
  O  O28  1  0.40938600  0.18316850  0.10955100  1
  O  O29  1  0.59061400  0.18316850  0.89044900  1
  O  O30  1  0.40938600  0.81683150  0.10955100  1
  O  O31  1  0.59061400  0.81683150  0.89044900  1
  O  O32  1  0.65685175  0.50000000  0.90952500  1
  O  O33  1  0.34314825  0.50000000  0.09047500  1
  O  O34  1  0.80476000  0.50000000  0.41231800  1
  O  O35  1  0.19524000  0.50000000  0.58768200  1
  O  O36  1  0.83253400  0.83029100  0.39602000  1
  O  O37  1  0.16746600  0.83029100  0.60398000  1
  O  O38  1  0.83253400  0.16970900  0.39602000  1
  O  O39  1  0.16746600  0.16970900  0.60398000  1
  O  O40  1  0.90938600  0.68316850  0.10955100  1
  O  O41  1  0.09061400  0.68316850  0.89044900  1
  O  O42  1  0.90938600  0.31683150  0.10955100  1
  O  O43  1  0.09061400  0.31683150  0.89044900  1
