# generated using pymatgen
data_Ti3V2Cu(PO4)6
_symmetry_space_group_name_H-M   'P 1'
_cell_length_a   8.68443092
_cell_length_b   8.68443092
_cell_length_c   20.70217118
_cell_angle_alpha   90.00000000
_cell_angle_beta   90.00000000
_cell_angle_gamma   120.00000000
_symmetry_Int_Tables_number   1
_chemical_formula_structural   Ti3V2Cu(PO4)6
_chemical_formula_sum   'Ti9 V6 Cu3 P18 O72'
_cell_volume   1352.16365148
_cell_formula_units_Z   3
loop_
 _symmetry_equiv_pos_site_id
 _symmetry_equiv_pos_as_xyz
  1  'x, y, z'
loop_
 _atom_site_type_symbol
 _atom_site_label
 _atom_site_symmetry_multiplicity
 _atom_site_fract_x
 _atom_site_fract_y
 _atom_site_fract_z
 _atom_site_occupancy
  Ti  Ti0  1  0.33333333  0.66666667  0.31198967  1
  Ti  Ti1  1  0.33333333  0.66666667  0.52368867  1
  Ti  Ti2  1  0.33333333  0.66666667  0.02110567  1
  Ti  Ti3  1  0.00000000  0.00000000  0.64532300  1
  Ti  Ti4  1  0.00000000  0.00000000  0.85702200  1
  Ti  Ti5  1  0.00000000  0.00000000  0.35443900  1
  Ti  Ti6  1  0.66666667  0.33333333  0.97865633  1
  Ti  Ti7  1  0.66666667  0.33333333  0.19035533  1
  Ti  Ti8  1  0.66666667  0.33333333  0.68777233  1
  V  V9  1  0.33333333  0.66666667  0.66931167  1
  V  V10  1  0.33333333  0.66666667  0.16822367  1
  V  V11  1  0.00000000  0.00000000  0.00264500  1
  V  V12  1  0.00000000  0.00000000  0.50155700  1
  V  V13  1  0.66666667  0.33333333  0.33597833  1
  V  V14  1  0.66666667  0.33333333  0.83489033  1
  Cu  Cu15  1  0.33333333  0.66666667  0.81314067  1
  Cu  Cu16  1  0.00000000  0.00000000  0.14647400  1
  Cu  Cu17  1  0.66666667  0.33333333  0.47980733  1
  P  P18  1  0.70510000  0.70416400  0.24853900  1
  P  P19  1  0.29583600  0.00093600  0.24853900  1
  P  P20  1  0.99906400  0.29490000  0.24853900  1
  P  P21  1  0.66553933  0.03857367  0.08331867  1
  P  P22  1  0.37303433  0.33446067  0.08331867  1
  P  P23  1  0.96142633  0.62696567  0.08331867  1
  P  P24  1  0.37176667  0.03749733  0.58187233  1
  P  P25  1  0.96250267  0.33426933  0.58187233  1
  P  P26  1  0.66573067  0.62823333  0.58187233  1
  P  P27  1  0.33220600  0.37190700  0.41665200  1
  P  P28  1  0.03970100  0.66779400  0.41665200  1
  P  P29  1  0.62809300  0.96029900  0.41665200  1
  P  P30  1  0.03843333  0.37083067  0.91520567  1
  P  P31  1  0.62916933  0.66760267  0.91520567  1
  P  P32  1  0.33239733  0.96156667  0.91520567  1
  P  P33  1  0.99887267  0.70524033  0.74998533  1
  P  P34  1  0.70636767  0.00112733  0.74998533  1
  P  P35  1  0.29475967  0.29363233  0.74998533  1
  O  O36  1  0.51924733  0.66207567  0.97578067  1
  O  O37  1  0.33792433  0.85717167  0.97578067  1
  O  O38  1  0.14282833  0.48075267  0.97578067  1
  O  O39  1  0.68283833  0.51485267  0.25875967  1
  O  O40  1  0.79405533  0.79023567  0.18619567  1
  O  O41  1  0.51183733  0.67535967  0.24669067  1
  O  O42  1  0.48514733  0.16798567  0.25875967  1
  O  O43  1  0.32464033  0.83647767  0.24669067  1
  O  O44  1  0.33854467  0.47947133  0.47766933  1
  O  O45  1  0.16352233  0.48816267  0.24669067  1
  O  O46  1  0.82885533  0.02116267  0.07179667  1
  O  O47  1  0.14092667  0.66145533  0.47766933  1
  O  O48  1  0.20976433  0.00381967  0.18619567  1
  O  O49  1  0.83201433  0.31716167  0.25875967  1
  O  O50  1  0.49671333  0.85079567  0.09094167  1
  O  O51  1  0.99618033  0.20594467  0.18619567  1
  O  O52  1  0.35408233  0.50328667  0.09094167  1
  O  O53  1  0.19230733  0.17114467  0.07179667  1
  O  O54  1  0.14920433  0.64591767  0.09094167  1
  O  O55  1  0.52052867  0.85907333  0.47766933  1
  O  O56  1  0.97883733  0.80769267  0.07179667  1
  O  O57  1  0.53061500  0.84146100  0.35781800  1
  O  O58  1  0.31084600  0.46938500  0.35781800  1
  O  O59  1  0.15853900  0.68915400  0.35781800  1
  O  O60  1  0.18591400  0.99540900  0.30911400  1
  O  O61  1  0.00459100  0.19050500  0.30911400  1
  O  O62  1  0.80949500  0.81408600  0.30911400  1
  O  O63  1  0.34950500  0.84818600  0.59209300  1
  O  O64  1  0.46072200  0.12356900  0.51952900  1
  O  O65  1  0.17850400  0.00869300  0.58002400  1
  O  O66  1  0.15181400  0.50131900  0.59209300  1
  O  O67  1  0.99130700  0.16981100  0.58002400  1
  O  O68  1  0.00521133  0.81280467  0.81100267  1
  O  O69  1  0.83018900  0.82149600  0.58002400  1
  O  O70  1  0.49552200  0.35449600  0.40513000  1
  O  O71  1  0.80759333  0.99478867  0.81100267  1
  O  O72  1  0.87643100  0.33715300  0.51952900  1
  O  O73  1  0.49868100  0.65049500  0.59209300  1
  O  O74  1  0.16338000  0.18412900  0.42427500  1
  O  O75  1  0.66284700  0.53927800  0.51952900  1
  O  O76  1  0.02074900  0.83662000  0.42427500  1
  O  O77  1  0.85897400  0.50447800  0.40513000  1
  O  O78  1  0.81587100  0.97925100  0.42427500  1
  O  O79  1  0.18719533  0.19240667  0.81100267  1
  O  O80  1  0.64550400  0.14102600  0.40513000  1
  O  O81  1  0.19728167  0.17479433  0.69115133  1
  O  O82  1  0.97751267  0.80271833  0.69115133  1
  O  O83  1  0.82520567  0.02248733  0.69115133  1
  O  O84  1  0.85258067  0.32874233  0.64244733  1
  O  O85  1  0.67125767  0.52383833  0.64244733  1
  O  O86  1  0.47616167  0.14741933  0.64244733  1
  O  O87  1  0.01617167  0.18151933  0.92542633  1
  O  O88  1  0.12738867  0.45690233  0.85286233  1
  O  O89  1  0.84517067  0.34202633  0.91335733  1
  O  O90  1  0.81848067  0.83465233  0.92542633  1
  O  O91  1  0.65797367  0.50314433  0.91335733  1
  O  O92  1  0.67187800  0.14613800  0.14433600  1
  O  O93  1  0.49685567  0.15482933  0.91335733  1
  O  O94  1  0.16218867  0.68782933  0.73846333  1
  O  O95  1  0.47426000  0.32812200  0.14433600  1
  O  O96  1  0.54309767  0.67048633  0.85286233  1
  O  O97  1  0.16534767  0.98382833  0.92542633  1
  O  O98  1  0.83004667  0.51746233  0.75760833  1
  O  O99  1  0.32951367  0.87261133  0.85286233  1
  O  O100  1  0.68741567  0.16995333  0.75760833  1
  O  O101  1  0.52564067  0.83781133  0.73846333  1
  O  O102  1  0.48253767  0.31258433  0.75760833  1
  O  O103  1  0.85386200  0.52574000  0.14433600  1
  O  O104  1  0.31217067  0.47435933  0.73846333  1
  O  O105  1  0.86394833  0.50812767  0.02448467  1
  O  O106  1  0.64417933  0.13605167  0.02448467  1
  O  O107  1  0.49187233  0.35582067  0.02448467  1
