# generated using pymatgen
data_Li4Cr3Cu3(TeO8)2
_symmetry_space_group_name_H-M   'P 1'
_cell_length_a   10.39825400
_cell_length_b   5.87925600
_cell_length_c   9.76651371
_cell_angle_alpha   90.00000000
_cell_angle_beta   93.21482751
_cell_angle_gamma   90.00000000
_symmetry_Int_Tables_number   1
_chemical_formula_structural   Li4Cr3Cu3(TeO8)2
_chemical_formula_sum   'Li8 Cr6 Cu6 Te4 O32'
_cell_volume   596.12641018
_cell_formula_units_Z   2
loop_
 _symmetry_equiv_pos_site_id
 _symmetry_equiv_pos_as_xyz
  1  'x, y, z'
loop_
 _atom_site_type_symbol
 _atom_site_label
 _atom_site_symmetry_multiplicity
 _atom_site_fract_x
 _atom_site_fract_y
 _atom_site_fract_z
 _atom_site_occupancy
  Li  Li0  1  0.66408100  0.00000000  0.08594600  1
  Li  Li1  1  0.99800500  0.00000000  0.01277300  1
  Li  Li2  1  0.50405500  0.50000000  0.52011400  1
  Li  Li3  1  0.84200200  0.50000000  0.58613500  1
  Li  Li4  1  0.16408100  0.50000000  0.08594600  1
  Li  Li5  1  0.49800500  0.50000000  0.01277300  1
  Li  Li6  1  0.00405500  0.00000000  0.52011400  1
  Li  Li7  1  0.34200200  0.00000000  0.58613500  1
  Cr  Cr8  1  0.82744500  0.00000000  0.78563500  1
  Cr  Cr9  1  0.91351200  0.25406100  0.28733500  1
  Cr  Cr10  1  0.91351200  0.74593900  0.28733500  1
  Cr  Cr11  1  0.32744500  0.50000000  0.78563500  1
  Cr  Cr12  1  0.41351200  0.75406100  0.28733500  1
  Cr  Cr13  1  0.41351200  0.24593900  0.28733500  1
  Cu  Cu14  1  0.58258750  0.75436950  0.79037800  1
  Cu  Cu15  1  0.58258750  0.24563050  0.79037800  1
  Cu  Cu16  1  0.66822400  0.50000000  0.28883500  1
  Cu  Cu17  1  0.08258750  0.25436950  0.79037800  1
  Cu  Cu18  1  0.08258750  0.74563050  0.79037800  1
  Cu  Cu19  1  0.16822400  0.00000000  0.28883500  1
  Te  Te20  1  0.67159200  0.00000000  0.51548900  1
  Te  Te21  1  0.82625700  0.50000000  0.01718500  1
  Te  Te22  1  0.17159200  0.50000000  0.51548900  1
  Te  Te23  1  0.32625700  0.00000000  0.01718500  1
  O  O24  1  0.58337400  0.75387900  0.41191900  1
  O  O25  1  0.52898900  0.00000000  0.64572200  1
  O  O26  1  0.66664100  0.00000000  0.88043300  1
  O  O27  1  0.99817500  0.00000000  0.70833400  1
  O  O28  1  0.99775500  0.00000000  0.19991000  1
  O  O29  1  0.58337400  0.24612100  0.41191900  1
  O  O30  1  0.75802050  0.78020850  0.63950500  1
  O  O31  1  0.75802050  0.21979150  0.63950500  1
  O  O32  1  0.65946400  0.50000000  0.91475100  1
  O  O33  1  0.83053200  0.00000000  0.40090300  1
  O  O34  1  0.76150350  0.27254550  0.14880400  1
  O  O35  1  0.76150350  0.72745450  0.14880400  1
  O  O36  1  0.83505800  0.50000000  0.38584200  1
  O  O37  1  0.90335000  0.25690600  0.91504800  1
  O  O38  1  0.97875100  0.50000000  0.15807900  1
  O  O39  1  0.90335000  0.74309400  0.91504800  1
  O  O40  1  0.08337400  0.25387900  0.41191900  1
  O  O41  1  0.02898900  0.50000000  0.64572200  1
  O  O42  1  0.16664100  0.50000000  0.88043300  1
  O  O43  1  0.49817500  0.50000000  0.70833400  1
  O  O44  1  0.49775500  0.50000000  0.19991000  1
  O  O45  1  0.08337400  0.74612100  0.41191900  1
  O  O46  1  0.25802050  0.28020850  0.63950500  1
  O  O47  1  0.25802050  0.71979150  0.63950500  1
  O  O48  1  0.15946400  0.00000000  0.91475100  1
  O  O49  1  0.33053200  0.50000000  0.40090300  1
  O  O50  1  0.26150350  0.77254550  0.14880400  1
  O  O51  1  0.26150350  0.22745450  0.14880400  1
  O  O52  1  0.33505800  0.00000000  0.38584200  1
  O  O53  1  0.40335000  0.75690600  0.91504800  1
  O  O54  1  0.47875100  0.00000000  0.15807900  1
  O  O55  1  0.40335000  0.24309400  0.91504800  1
