# generated using pymatgen
data_Li4MnCu3O8
_symmetry_space_group_name_H-M   'P 1'
_cell_length_a   5.89437128
_cell_length_b   5.89437128
_cell_length_c   14.40890928
_cell_angle_alpha   90.00000000
_cell_angle_beta   90.00000000
_cell_angle_gamma   120.00000000
_symmetry_Int_Tables_number   1
_chemical_formula_structural   Li4MnCu3O8
_chemical_formula_sum   'Li12 Mn3 Cu9 O24'
_cell_volume   433.54752823
_cell_formula_units_Z   3
loop_
 _symmetry_equiv_pos_site_id
 _symmetry_equiv_pos_as_xyz
  1  'x, y, z'
loop_
 _atom_site_type_symbol
 _atom_site_label
 _atom_site_symmetry_multiplicity
 _atom_site_fract_x
 _atom_site_fract_y
 _atom_site_fract_z
 _atom_site_occupancy
  Li  Li0  1  0.66666667  0.33333333  0.83333333  1
  Li  Li1  1  0.66666667  0.83333333  0.83333333  1
  Li  Li2  1  0.16666667  0.83333333  0.83333333  1
  Li  Li3  1  0.16666667  0.33333333  0.83333333  1
  Li  Li4  1  0.33333333  0.66666667  0.16666667  1
  Li  Li5  1  0.33333333  0.16666667  0.16666667  1
  Li  Li6  1  0.83333333  0.16666667  0.16666667  1
  Li  Li7  1  0.83333333  0.66666667  0.16666667  1
  Li  Li8  1  1.00000000  1.00000000  0.50000000  1
  Li  Li9  1  0.00000000  0.50000000  0.50000000  1
  Li  Li10  1  0.50000000  0.50000000  0.50000000  1
  Li  Li11  1  0.50000000  0.00000000  0.50000000  1
  Mn  Mn12  1  0.33333333  0.66666667  0.66666667  1
  Mn  Mn13  1  1.00000000  1.00000000  0.00000000  1
  Mn  Mn14  1  0.66666667  0.33333333  0.33333333  1
  Cu  Cu15  1  0.00000000  0.50000000  0.00000000  1
  Cu  Cu16  1  0.50000000  0.50000000  0.00000000  1
  Cu  Cu17  1  0.50000000  0.00000000  0.00000000  1
  Cu  Cu18  1  0.66666667  0.83333333  0.33333333  1
  Cu  Cu19  1  0.16666667  0.83333333  0.33333333  1
  Cu  Cu20  1  0.16666667  0.33333333  0.33333333  1
  Cu  Cu21  1  0.33333333  0.16666667  0.66666667  1
  Cu  Cu22  1  0.83333333  0.16666667  0.66666667  1
  Cu  Cu23  1  0.83333333  0.66666667  0.66666667  1
  O  O24  1  0.00000000  0.00000000  0.73924067  1
  O  O25  1  0.02083300  0.51041650  0.74336000  1
  O  O26  1  0.48958350  0.51041650  0.74336000  1
  O  O27  1  0.33333333  0.66666667  0.92742600  1
  O  O28  1  0.48958350  0.97916700  0.74336000  1
  O  O29  1  0.31250033  0.15625017  0.92330667  1
  O  O30  1  0.84374983  0.15625017  0.92330667  1
  O  O31  1  0.84374983  0.68749967  0.92330667  1
  O  O32  1  0.66666667  0.33333333  0.07257400  1
  O  O33  1  0.68749967  0.84374983  0.07669333  1
  O  O34  1  0.15625017  0.84374983  0.07669333  1
  O  O35  1  0.00000000  0.00000000  0.26075933  1
  O  O36  1  0.15625017  0.31250033  0.07669333  1
  O  O37  1  0.97916700  0.48958350  0.25664000  1
  O  O38  1  0.51041650  0.48958350  0.25664000  1
  O  O39  1  0.51041650  0.02083300  0.25664000  1
  O  O40  1  0.33333333  0.66666667  0.40590733  1
  O  O41  1  0.35416633  0.17708317  0.41002667  1
  O  O42  1  0.82291683  0.17708317  0.41002667  1
  O  O43  1  0.66666667  0.33333333  0.59409267  1
  O  O44  1  0.82291683  0.64583367  0.41002667  1
  O  O45  1  0.64583367  0.82291683  0.58997333  1
  O  O46  1  0.17708317  0.82291683  0.58997333  1
  O  O47  1  0.17708317  0.35416633  0.58997333  1
