# generated using pymatgen
data_Y2V2O7
_symmetry_space_group_name_H-M   'P 1'
_cell_length_a   6.72001400
_cell_length_b   9.54033400
_cell_length_c   5.24306017
_cell_angle_alpha   90.00000000
_cell_angle_beta   100.68916544
_cell_angle_gamma   90.00000000
_symmetry_Int_Tables_number   1
_chemical_formula_structural   Y2V2O7
_chemical_formula_sum   'Y4 V4 O14'
_cell_volume   330.30604640
_cell_formula_units_Z   2
loop_
 _symmetry_equiv_pos_site_id
 _symmetry_equiv_pos_as_xyz
  1  'x, y, z'
loop_
 _atom_site_type_symbol
 _atom_site_label
 _atom_site_symmetry_multiplicity
 _atom_site_fract_x
 _atom_site_fract_y
 _atom_site_fract_z
 _atom_site_occupancy
  Y  Y0  1  0.50000000  0.81202800  0.50000000  1
  Y  Y1  1  0.50000000  0.18797200  0.50000000  1
  Y  Y2  1  0.00000000  0.31202800  0.50000000  1
  Y  Y3  1  0.00000000  0.68797200  0.50000000  1
  V  V4  1  0.24327400  0.00000000  0.90112300  1
  V  V5  1  0.75672600  0.00000000  0.09887700  1
  V  V6  1  0.74327400  0.50000000  0.90112300  1
  V  V7  1  0.25672600  0.50000000  0.09887700  1
  O  O8  1  0.22911400  0.83868800  0.70724400  1
  O  O9  1  0.22911400  0.16131200  0.70724400  1
  O  O10  1  0.41916400  0.00000000  0.22107400  1
  O  O11  1  0.58083600  0.00000000  0.77892600  1
  O  O12  1  0.00000000  0.00000000  0.00000000  1
  O  O13  1  0.77088600  0.83868800  0.29275600  1
  O  O14  1  0.77088600  0.16131200  0.29275600  1
  O  O15  1  0.72911400  0.33868800  0.70724400  1
  O  O16  1  0.72911400  0.66131200  0.70724400  1
  O  O17  1  0.91916400  0.50000000  0.22107400  1
  O  O18  1  0.08083600  0.50000000  0.77892600  1
  O  O19  1  0.50000000  0.50000000  0.00000000  1
  O  O20  1  0.27088600  0.33868800  0.29275600  1
  O  O21  1  0.27088600  0.66131200  0.29275600  1
