# generated using pymatgen
data_Li3Mn2P2(CO7)2
_symmetry_space_group_name_H-M   'P 1'
_cell_length_a   9.43146700
_cell_length_b   6.46586300
_cell_length_c   10.05908890
_cell_angle_alpha   90.00000000
_cell_angle_beta   117.54034487
_cell_angle_gamma   90.00000000
_symmetry_Int_Tables_number   1
_chemical_formula_structural   Li3Mn2P2(CO7)2
_chemical_formula_sum   'Li6 Mn4 P4 C4 O28'
_cell_volume   543.91869682
_cell_formula_units_Z   2
loop_
 _symmetry_equiv_pos_site_id
 _symmetry_equiv_pos_as_xyz
  1  'x, y, z'
loop_
 _atom_site_type_symbol
 _atom_site_label
 _atom_site_symmetry_multiplicity
 _atom_site_fract_x
 _atom_site_fract_y
 _atom_site_fract_z
 _atom_site_occupancy
  Li  Li0  1  0.98803400  0.03912500  0.25030800  1
  Li  Li1  1  0.49875500  0.48746200  0.75213400  1
  Li  Li2  1  0.49666600  0.01349500  0.75005600  1
  Li  Li3  1  0.50124500  0.98746200  0.24786600  1
  Li  Li4  1  0.50333400  0.51349500  0.24994400  1
  Li  Li5  1  0.01196600  0.53912500  0.74969200  1
  Mn  Mn6  1  0.73461700  0.74691600  0.06530300  1
  Mn  Mn7  1  0.22280800  0.74583000  0.55889700  1
  Mn  Mn8  1  0.77719200  0.24583000  0.44110300  1
  Mn  Mn9  1  0.26538300  0.24691600  0.93469700  1
  P  P10  1  0.64956000  0.24921000  0.06897900  1
  P  P11  1  0.15549300  0.24936000  0.57772100  1
  P  P12  1  0.84450700  0.74936000  0.42227900  1
  P  P13  1  0.35044000  0.74921000  0.93102100  1
  C  C14  1  0.33321100  0.75778800  0.38242900  1
  C  C15  1  0.82886600  0.74515200  0.87744900  1
  C  C16  1  0.17113400  0.24515200  0.12255100  1
  C  C17  1  0.66678900  0.25778800  0.61757100  1
  O  O18  1  0.92071800  0.75269800  0.02235700  1
  O  O19  1  0.41983700  0.74550000  0.52929700  1
  O  O20  1  0.12677800  0.22978700  0.21984400  1
  O  O21  1  0.18075000  0.77320300  0.34299000  1
  O  O22  1  0.60941700  0.25311100  0.70789100  1
  O  O23  1  0.67375200  0.75176800  0.84602300  1
  O  O24  1  0.74969800  0.06179900  0.06608800  1
  O  O25  1  0.73903600  0.44063200  0.05841500  1
  O  O26  1  0.25652600  0.05855100  0.58454000  1
  O  O27  1  0.25283700  0.43539600  0.56821600  1
  O  O28  1  0.87153100  0.77047500  0.28190300  1
  O  O29  1  0.98535600  0.23154700  0.43997000  1
  O  O30  1  0.37353100  0.74479200  0.78737200  1
  O  O31  1  0.47779100  0.24258900  0.92964500  1
  O  O32  1  0.52220900  0.74258900  0.07035500  1
  O  O33  1  0.62646900  0.24479200  0.21262800  1
  O  O34  1  0.01464400  0.73154700  0.56003000  1
  O  O35  1  0.12846900  0.27047500  0.71809700  1
  O  O36  1  0.74716300  0.93539600  0.43178400  1
  O  O37  1  0.74347400  0.55855100  0.41546000  1
  O  O38  1  0.25030200  0.56179900  0.93391200  1
  O  O39  1  0.26096400  0.94063200  0.94158500  1
  O  O40  1  0.32624800  0.25176800  0.15397700  1
  O  O41  1  0.39058300  0.75311100  0.29210900  1
  O  O42  1  0.81925000  0.27320300  0.65701000  1
  O  O43  1  0.87322200  0.72978700  0.78015600  1
  O  O44  1  0.58016300  0.24550000  0.47070300  1
  O  O45  1  0.07928200  0.25269800  0.97764300  1
