# generated using pymatgen
data_Li4Mn5Fe3O16
_symmetry_space_group_name_H-M   'P 1'
_cell_length_a   10.23476200
_cell_length_b   5.88660600
_cell_length_c   9.49848932
_cell_angle_alpha   90.00000000
_cell_angle_beta   91.27868686
_cell_angle_gamma   90.00000000
_symmetry_Int_Tables_number   1
_chemical_formula_structural   Li4Mn5Fe3O16
_chemical_formula_sum   'Li8 Mn10 Fe6 O32'
_cell_volume   572.12258699
_cell_formula_units_Z   2
loop_
 _symmetry_equiv_pos_site_id
 _symmetry_equiv_pos_as_xyz
  1  'x, y, z'
loop_
 _atom_site_type_symbol
 _atom_site_label
 _atom_site_symmetry_multiplicity
 _atom_site_fract_x
 _atom_site_fract_y
 _atom_site_fract_z
 _atom_site_occupancy
  Li  Li0  1  0.66982400  0.00000000  0.10263400  1
  Li  Li1  1  0.99787800  0.00000000  0.00395800  1
  Li  Li2  1  0.99976500  0.00000000  0.50780200  1
  Li  Li3  1  0.83720500  0.50000000  0.60409400  1
  Li  Li4  1  0.16982400  0.50000000  0.10263400  1
  Li  Li5  1  0.49787800  0.50000000  0.00395800  1
  Li  Li6  1  0.49976500  0.50000000  0.50780200  1
  Li  Li7  1  0.33720500  0.00000000  0.60409400  1
  Mn  Mn8  1  0.66570400  0.00000000  0.51545900  1
  Mn  Mn9  1  0.82722800  0.00000000  0.78660700  1
  Mn  Mn10  1  0.83058800  0.50000000  0.01465100  1
  Mn  Mn11  1  0.91673500  0.25448600  0.28662700  1
  Mn  Mn12  1  0.91673500  0.74551400  0.28662700  1
  Mn  Mn13  1  0.16570400  0.50000000  0.51545900  1
  Mn  Mn14  1  0.32722800  0.50000000  0.78660700  1
  Mn  Mn15  1  0.33058800  0.00000000  0.01465100  1
  Mn  Mn16  1  0.41673500  0.75448600  0.28662700  1
  Mn  Mn17  1  0.41673500  0.24551400  0.28662700  1
  Fe  Fe18  1  0.58191150  0.75609450  0.78756600  1
  Fe  Fe19  1  0.58191150  0.24390550  0.78756600  1
  Fe  Fe20  1  0.66969700  0.50000000  0.28762800  1
  Fe  Fe21  1  0.08191150  0.25609450  0.78756600  1
  Fe  Fe22  1  0.08191150  0.74390550  0.78756600  1
  Fe  Fe23  1  0.16969700  0.00000000  0.28762800  1
  O  O24  1  0.58201650  0.74772750  0.40020800  1
  O  O25  1  0.51868000  0.00000000  0.65572600  1
  O  O26  1  0.67326200  0.00000000  0.89606100  1
  O  O27  1  0.99073600  0.00000000  0.69416200  1
  O  O28  1  0.99477900  0.00000000  0.19239100  1
  O  O29  1  0.58201650  0.25227250  0.40020800  1
  O  O30  1  0.74329050  0.78416350  0.65703100  1
  O  O31  1  0.74329050  0.21583650  0.65703100  1
  O  O32  1  0.66566300  0.50000000  0.90553800  1
  O  O33  1  0.83675600  0.00000000  0.39536200  1
  O  O34  1  0.76488250  0.27911950  0.15762600  1
  O  O35  1  0.76488250  0.72088050  0.15762600  1
  O  O36  1  0.84089200  0.50000000  0.39231600  1
  O  O37  1  0.91224050  0.24835150  0.90042700  1
  O  O38  1  0.98091400  0.50000000  0.15872900  1
  O  O39  1  0.91224050  0.75164850  0.90042700  1
  O  O40  1  0.08201650  0.24772750  0.40020800  1
  O  O41  1  0.01868000  0.50000000  0.65572600  1
  O  O42  1  0.17326200  0.50000000  0.89606100  1
  O  O43  1  0.49073600  0.50000000  0.69416200  1
  O  O44  1  0.49477900  0.50000000  0.19239100  1
  O  O45  1  0.08201650  0.75227250  0.40020800  1
  O  O46  1  0.24329050  0.28416350  0.65703100  1
  O  O47  1  0.24329050  0.71583650  0.65703100  1
  O  O48  1  0.16566300  0.00000000  0.90553800  1
  O  O49  1  0.33675600  0.50000000  0.39536200  1
  O  O50  1  0.26488250  0.77911950  0.15762600  1
  O  O51  1  0.26488250  0.22088050  0.15762600  1
  O  O52  1  0.34089200  0.00000000  0.39231600  1
  O  O53  1  0.41224050  0.74835150  0.90042700  1
  O  O54  1  0.48091400  0.00000000  0.15872900  1
  O  O55  1  0.41224050  0.25164850  0.90042700  1
