# generated using pymatgen
data_Li2Mn(SiO3)2
_symmetry_space_group_name_H-M   'P 1'
_cell_length_a   7.30530019
_cell_length_b   7.38224908
_cell_length_c   19.68593047
_cell_angle_alpha   90.00000000
_cell_angle_beta   90.00000000
_cell_angle_gamma   90.00000000
_symmetry_Int_Tables_number   1
_chemical_formula_structural   Li2Mn(SiO3)2
_chemical_formula_sum   'Li16 Mn8 Si16 O48'
_cell_volume   1061.65328598
_cell_formula_units_Z   8
loop_
 _symmetry_equiv_pos_site_id
 _symmetry_equiv_pos_as_xyz
  1  'x, y, z'
loop_
 _atom_site_type_symbol
 _atom_site_label
 _atom_site_symmetry_multiplicity
 _atom_site_fract_x
 _atom_site_fract_y
 _atom_site_fract_z
 _atom_site_occupancy
  Li  Li0  1  0.72091800  0.52312150  0.83243450  1
  Li  Li1  1  0.97091800  0.27312150  0.91756550  1
  Li  Li2  1  0.47091800  0.22687850  0.08243450  1
  Li  Li3  1  0.72091800  0.47687850  0.16756550  1
  Li  Li4  1  0.22091800  0.52312150  0.33243450  1
  Li  Li5  1  0.47091800  0.27312150  0.41756550  1
  Li  Li6  1  0.97091800  0.22687850  0.58243450  1
  Li  Li7  1  0.22091800  0.47687850  0.66756550  1
  Li  Li8  1  0.22091800  0.02312150  0.83243450  1
  Li  Li9  1  0.47091800  0.77312150  0.91756550  1
  Li  Li10  1  0.97091800  0.72687850  0.08243450  1
  Li  Li11  1  0.22091800  0.97687850  0.16756550  1
  Li  Li12  1  0.72091800  0.02312150  0.33243450  1
  Li  Li13  1  0.97091800  0.77312150  0.41756550  1
  Li  Li14  1  0.47091800  0.72687850  0.58243450  1
  Li  Li15  1  0.72091800  0.97687850  0.66756550  1
  Mn  Mn16  1  0.71670000  0.50000000  0.00000000  1
  Mn  Mn17  1  0.96670000  0.25000000  0.75000000  1
  Mn  Mn18  1  0.21670000  0.50000000  0.50000000  1
  Mn  Mn19  1  0.46670000  0.25000000  0.25000000  1
  Mn  Mn20  1  0.21670000  0.00000000  0.00000000  1
  Mn  Mn21  1  0.46670000  0.75000000  0.75000000  1
  Mn  Mn22  1  0.71670000  0.00000000  0.50000000  1
  Mn  Mn23  1  0.96670000  0.75000000  0.25000000  1
  Si  Si24  1  0.28658100  0.43472750  0.83375400  1
  Si  Si25  1  0.53658100  0.18472750  0.91624600  1
  Si  Si26  1  0.03658100  0.31527250  0.08375400  1
  Si  Si27  1  0.78658100  0.06527250  0.16624600  1
  Si  Si28  1  0.78658100  0.43472750  0.33375400  1
  Si  Si29  1  0.03658100  0.18472750  0.41624600  1
  Si  Si30  1  0.53658100  0.31527250  0.58375400  1
  Si  Si31  1  0.28658100  0.06527250  0.66624600  1
  Si  Si32  1  0.78658100  0.93472750  0.83375400  1
  Si  Si33  1  0.03658100  0.68472750  0.91624600  1
  Si  Si34  1  0.53658100  0.81527250  0.08375400  1
  Si  Si35  1  0.28658100  0.56527250  0.16624600  1
  Si  Si36  1  0.28658100  0.93472750  0.33375400  1
  Si  Si37  1  0.53658100  0.68472750  0.41624600  1
  Si  Si38  1  0.03658100  0.81527250  0.58375400  1
  Si  Si39  1  0.78658100  0.56527250  0.66624600  1
  O  O40  1  0.31545600  0.51806225  0.75860725  1
  O  O41  1  0.56545600  0.26806225  0.99139275  1
  O  O42  1  0.06545600  0.23193775  0.00860725  1
  O  O43  1  0.81545600  0.98193775  0.24139275  1
  O  O44  1  0.13132550  0.27594450  0.83709450  1
  O  O45  1  0.88132550  0.52594450  0.91290550  1
  O  O46  1  0.88132550  0.47405550  0.08709450  1
  O  O47  1  0.63132550  0.22405550  0.16290550  1
  O  O48  1  0.73722600  0.10604300  0.88728450  1
  O  O49  1  0.48722600  0.35604300  0.86271550  1
  O  O50  1  0.98722600  0.14395700  0.13728450  1
  O  O51  1  0.73722600  0.89395700  0.11271550  1
  O  O52  1  0.81545600  0.51806225  0.25860725  1
  O  O53  1  0.06545600  0.26806225  0.49139275  1
  O  O54  1  0.56545600  0.23193775  0.50860725  1
  O  O55  1  0.31545600  0.98193775  0.74139275  1
  O  O56  1  0.63132550  0.27594450  0.33709450  1
  O  O57  1  0.38132550  0.52594450  0.41290550  1
  O  O58  1  0.38132550  0.47405550  0.58709450  1
  O  O59  1  0.13132550  0.22405550  0.66290550  1
  O  O60  1  0.23722600  0.10604300  0.38728450  1
  O  O61  1  0.98722600  0.35604300  0.36271550  1
  O  O62  1  0.48722600  0.14395700  0.63728450  1
  O  O63  1  0.23722600  0.89395700  0.61271550  1
  O  O64  1  0.81545600  0.01806225  0.75860725  1
  O  O65  1  0.06545600  0.76806225  0.99139275  1
  O  O66  1  0.56545600  0.73193775  0.00860725  1
  O  O67  1  0.31545600  0.48193775  0.24139275  1
  O  O68  1  0.63132550  0.77594450  0.83709450  1
  O  O69  1  0.38132550  0.02594450  0.91290550  1
  O  O70  1  0.38132550  0.97405550  0.08709450  1
  O  O71  1  0.13132550  0.72405550  0.16290550  1
  O  O72  1  0.23722600  0.60604300  0.88728450  1
  O  O73  1  0.98722600  0.85604300  0.86271550  1
  O  O74  1  0.48722600  0.64395700  0.13728450  1
  O  O75  1  0.23722600  0.39395700  0.11271550  1
  O  O76  1  0.31545600  0.01806225  0.25860725  1
  O  O77  1  0.56545600  0.76806225  0.49139275  1
  O  O78  1  0.06545600  0.73193775  0.50860725  1
  O  O79  1  0.81545600  0.48193775  0.74139275  1
  O  O80  1  0.13132550  0.77594450  0.33709450  1
  O  O81  1  0.88132550  0.02594450  0.41290550  1
  O  O82  1  0.88132550  0.97405550  0.58709450  1
  O  O83  1  0.63132550  0.72405550  0.66290550  1
  O  O84  1  0.73722600  0.60604300  0.38728450  1
  O  O85  1  0.48722600  0.85604300  0.36271550  1
  O  O86  1  0.98722600  0.64395700  0.63728450  1
  O  O87  1  0.73722600  0.39395700  0.61271550  1
