# generated using pymatgen
data_LiFeOF2
_symmetry_space_group_name_H-M   'P 1'
_cell_length_a   9.82956800
_cell_length_b   8.96650200
_cell_length_c   5.28015382
_cell_angle_alpha   90.00000000
_cell_angle_beta   98.80715109
_cell_angle_gamma   90.00000000
_symmetry_Int_Tables_number   1
_chemical_formula_structural   LiFeOF2
_chemical_formula_sum   'Li8 Fe8 O8 F16'
_cell_volume   459.88895893
_cell_formula_units_Z   8
loop_
 _symmetry_equiv_pos_site_id
 _symmetry_equiv_pos_as_xyz
  1  'x, y, z'
loop_
 _atom_site_type_symbol
 _atom_site_label
 _atom_site_symmetry_multiplicity
 _atom_site_fract_x
 _atom_site_fract_y
 _atom_site_fract_z
 _atom_site_occupancy
  Li  Li0  1  0.30859600  0.91135700  0.67715300  1
  Li  Li1  1  0.30859600  0.08864300  0.17715300  1
  Li  Li2  1  0.69140400  0.91135700  0.82284700  1
  Li  Li3  1  0.69140400  0.08864300  0.32284700  1
  Li  Li4  1  0.80859600  0.41135700  0.67715300  1
  Li  Li5  1  0.80859600  0.58864300  0.17715300  1
  Li  Li6  1  0.19140400  0.41135700  0.82284700  1
  Li  Li7  1  0.19140400  0.58864300  0.32284700  1
  Fe  Fe8  1  0.50000000  0.57289600  0.75000000  1
  Fe  Fe9  1  0.50000000  0.24215400  0.75000000  1
  Fe  Fe10  1  0.50000000  0.75784600  0.25000000  1
  Fe  Fe11  1  0.50000000  0.42710400  0.25000000  1
  Fe  Fe12  1  0.00000000  0.07289600  0.75000000  1
  Fe  Fe13  1  0.00000000  0.74215400  0.75000000  1
  Fe  Fe14  1  0.00000000  0.25784600  0.25000000  1
  Fe  Fe15  1  0.00000000  0.92710400  0.25000000  1
  O  O16  1  0.10408700  0.90809500  0.60877400  1
  O  O17  1  0.10408700  0.09190500  0.10877400  1
  O  O18  1  0.89591300  0.90809500  0.89122600  1
  O  O19  1  0.89591300  0.09190500  0.39122600  1
  O  O20  1  0.60408700  0.40809500  0.60877400  1
  O  O21  1  0.60408700  0.59190500  0.10877400  1
  O  O22  1  0.39591300  0.40809500  0.89122600  1
  O  O23  1  0.39591300  0.59190500  0.39122600  1
  F  F24  1  0.37641850  0.08898750  0.85558500  1
  F  F25  1  0.38979600  0.74984200  0.89014900  1
  F  F26  1  0.37641850  0.91101250  0.35558500  1
  F  F27  1  0.38979600  0.25015800  0.39014900  1
  F  F28  1  0.61020400  0.74984200  0.60985100  1
  F  F29  1  0.62358150  0.08898750  0.64441500  1
  F  F30  1  0.61020400  0.25015800  0.10985100  1
  F  F31  1  0.62358150  0.91101250  0.14441500  1
  F  F32  1  0.87641850  0.58898750  0.85558500  1
  F  F33  1  0.88979600  0.24984200  0.89014900  1
  F  F34  1  0.87641850  0.41101250  0.35558500  1
  F  F35  1  0.88979600  0.75015800  0.39014900  1
  F  F36  1  0.11020400  0.24984200  0.60985100  1
  F  F37  1  0.12358150  0.58898750  0.64441500  1
  F  F38  1  0.11020400  0.75015800  0.10985100  1
  F  F39  1  0.12358150  0.41101250  0.14441500  1
