# generated using pymatgen
data_V3CrO10
_symmetry_space_group_name_H-M   'P 1'
_cell_length_a   6.58231300
_cell_length_b   6.58231300
_cell_length_c   4.56975900
_cell_angle_alpha   90.00000000
_cell_angle_beta   90.00000000
_cell_angle_gamma   90.00000000
_symmetry_Int_Tables_number   1
_chemical_formula_structural   V3CrO10
_chemical_formula_sum   'V3 Cr1 O10'
_cell_volume   197.99323748
_cell_formula_units_Z   1
loop_
 _symmetry_equiv_pos_site_id
 _symmetry_equiv_pos_as_xyz
  1  'x, y, z'
loop_
 _atom_site_type_symbol
 _atom_site_label
 _atom_site_symmetry_multiplicity
 _atom_site_fract_x
 _atom_site_fract_y
 _atom_site_fract_z
 _atom_site_occupancy
  V  V0  1  0.50000000  0.00000000  0.11726250  1
  V  V1  1  0.00000000  0.50000000  0.88273750  1
  V  V2  1  0.50000000  0.50000000  0.00000000  1
  Cr  Cr3  1  0.00000000  0.00000000  0.00000000  1
  O  O4  1  0.50000000  0.00000000  0.76421100  1
  O  O5  1  0.00000000  0.50000000  0.23578900  1
  O  O6  1  0.00000000  0.78380900  0.78585500  1
  O  O7  1  0.78380900  0.00000000  0.21414500  1
  O  O8  1  0.21619100  0.00000000  0.21414500  1
  O  O9  1  0.00000000  0.21619100  0.78585500  1
  O  O10  1  0.50000000  0.28161650  0.21534950  1
  O  O11  1  0.28161650  0.50000000  0.78465050  1
  O  O12  1  0.71838350  0.50000000  0.78465050  1
  O  O13  1  0.50000000  0.71838350  0.21534950  1
