# generated using pymatgen
data_Mn2Fe3Sn(PO4)6
_symmetry_space_group_name_H-M   'P 1'
_cell_length_a   8.69504199
_cell_length_b   8.69504199
_cell_length_c   21.22536812
_cell_angle_alpha   90.00000000
_cell_angle_beta   90.00000000
_cell_angle_gamma   120.00000000
_symmetry_Int_Tables_number   1
_chemical_formula_structural   Mn2Fe3Sn(PO4)6
_chemical_formula_sum   'Mn6 Fe9 Sn3 P18 O72'
_cell_volume   1389.72615206
_cell_formula_units_Z   3
loop_
 _symmetry_equiv_pos_site_id
 _symmetry_equiv_pos_as_xyz
  1  'x, y, z'
loop_
 _atom_site_type_symbol
 _atom_site_label
 _atom_site_symmetry_multiplicity
 _atom_site_fract_x
 _atom_site_fract_y
 _atom_site_fract_z
 _atom_site_occupancy
  Mn  Mn0  1  0.33333333  0.66666667  0.66313567  1
  Mn  Mn1  1  0.33333333  0.66666667  0.16732967  1
  Mn  Mn2  1  0.00000000  0.00000000  0.99646900  1
  Mn  Mn3  1  0.00000000  0.00000000  0.50066300  1
  Mn  Mn4  1  0.66666667  0.33333333  0.32980233  1
  Mn  Mn5  1  0.66666667  0.33333333  0.83399633  1
  Fe  Fe6  1  0.33333333  0.66666667  0.52057267  1
  Fe  Fe7  1  0.33333333  0.66666667  0.31320067  1
  Fe  Fe8  1  0.33333333  0.66666667  0.02125167  1
  Fe  Fe9  1  0.00000000  0.00000000  0.85390600  1
  Fe  Fe10  1  0.00000000  0.00000000  0.64653400  1
  Fe  Fe11  1  0.00000000  0.00000000  0.35458500  1
  Fe  Fe12  1  0.66666667  0.33333333  0.18723933  1
  Fe  Fe13  1  0.66666667  0.33333333  0.97986733  1
  Fe  Fe14  1  0.66666667  0.33333333  0.68791833  1
  Sn  Sn15  1  0.33333333  0.66666667  0.81121067  1
  Sn  Sn16  1  0.00000000  0.00000000  0.14454400  1
  Sn  Sn17  1  0.66666667  0.33333333  0.47787733  1
  P  P18  1  0.66289000  0.03857100  0.08372500  1
  P  P19  1  0.37568100  0.33711000  0.08372500  1
  P  P20  1  0.96142900  0.62431900  0.08372500  1
  P  P21  1  0.70190067  0.70296533  0.25097733  1
  P  P22  1  0.29703467  0.99893533  0.25097733  1
  P  P23  1  0.00106467  0.29809933  0.25097733  1
  P  P24  1  0.32955667  0.37190433  0.41705833  1
  P  P25  1  0.04234767  0.67044333  0.41705833  1
  P  P26  1  0.62809567  0.95765233  0.41705833  1
  P  P27  1  0.36856733  0.03629867  0.58431067  1
  P  P28  1  0.96370133  0.33226867  0.58431067  1
  P  P29  1  0.66773133  0.63143267  0.58431067  1
  P  P30  1  0.99622333  0.70523767  0.75039167  1
  P  P31  1  0.70901433  0.00377667  0.75039167  1
  P  P32  1  0.29476233  0.29098567  0.75039167  1
  P  P33  1  0.03523400  0.36963200  0.91764400  1
  P  P34  1  0.63036800  0.66560200  0.91764400  1
  P  P35  1  0.33439800  0.96476600  0.91764400  1
  O  O36  1  0.53302500  0.86026200  0.35700800  1
  O  O37  1  0.32723700  0.46697500  0.35700800  1
  O  O38  1  0.68224800  0.51548700  0.25575200  1
  O  O39  1  0.13973800  0.67276300  0.35700800  1
  O  O40  1  0.79504333  0.79611467  0.18898967  1
  O  O41  1  0.51332333  0.68174667  0.24499767  1
  O  O42  1  0.48451300  0.16676100  0.25575200  1
  O  O43  1  0.31825333  0.83157667  0.24499767  1
  O  O44  1  0.66945967  0.13784033  0.14379433  1
  O  O45  1  0.16842333  0.48667667  0.24499767  1
  O  O46  1  0.83301067  0.01753833  0.07669833  1
  O  O47  1  0.46838067  0.33054033  0.14379433  1
  O  O48  1  0.20388533  0.99892867  0.18898967  1
  O  O49  1  0.83323900  0.31775200  0.25575200  1
  O  O50  1  0.49751800  0.84862700  0.08991400  1
  O  O51  1  0.00107133  0.20495667  0.18898967  1
  O  O52  1  0.35110900  0.50248200  0.08991400  1
  O  O53  1  0.18452767  0.16698933  0.07669833  1
  O  O54  1  0.15137300  0.64889100  0.08991400  1
  O  O55  1  0.86215967  0.53161933  0.14379433  1
  O  O56  1  0.52678100  0.66363000  0.97591000  1
  O  O57  1  0.98246167  0.81547233  0.07669833  1
  O  O58  1  0.33637000  0.86315100  0.97591000  1
  O  O59  1  0.13684900  0.47321900  0.97591000  1
  O  O60  1  0.19969167  0.19359533  0.69034133  1
  O  O61  1  0.99390367  0.80030833  0.69034133  1
  O  O62  1  0.34891467  0.84882033  0.58908533  1
  O  O63  1  0.80640467  0.00609633  0.69034133  1
  O  O64  1  0.46171000  0.12944800  0.52232300  1
  O  O65  1  0.17999000  0.01508000  0.57833100  1
  O  O66  1  0.15117967  0.50009433  0.58908533  1
  O  O67  1  0.98492000  0.16491000  0.57833100  1
  O  O68  1  0.33612633  0.47117367  0.47712767  1
  O  O69  1  0.83509000  0.82001000  0.57833100  1
  O  O70  1  0.49967733  0.35087167  0.41003167  1
  O  O71  1  0.13504733  0.66387367  0.47712767  1
  O  O72  1  0.87055200  0.33226200  0.52232300  1
  O  O73  1  0.49990567  0.65108533  0.58908533  1
  O  O74  1  0.16418467  0.18196033  0.42324733  1
  O  O75  1  0.66773800  0.53829000  0.52232300  1
  O  O76  1  0.01777567  0.83581533  0.42324733  1
  O  O77  1  0.85119433  0.50032267  0.41003167  1
  O  O78  1  0.81803967  0.98222433  0.42324733  1
  O  O79  1  0.52882633  0.86495267  0.47712767  1
  O  O80  1  0.19344767  0.99696333  0.30924333  1
  O  O81  1  0.64912833  0.14880567  0.41003167  1
  O  O82  1  0.00303667  0.19648433  0.30924333  1
  O  O83  1  0.80351567  0.80655233  0.30924333  1
  O  O84  1  0.86635833  0.52692867  0.02367467  1
  O  O85  1  0.66057033  0.13364167  0.02367467  1
  O  O86  1  0.01558133  0.18215367  0.92241867  1
  O  O87  1  0.47307133  0.33942967  0.02367467  1
  O  O88  1  0.12837667  0.46278133  0.85565633  1
  O  O89  1  0.84665667  0.34841333  0.91166433  1
  O  O90  1  0.81784633  0.83342767  0.92241867  1
  O  O91  1  0.65158667  0.49824333  0.91166433  1
  O  O92  1  0.00279300  0.80450700  0.81046100  1
  O  O93  1  0.50175667  0.15334333  0.91166433  1
  O  O94  1  0.16634400  0.68420500  0.74336500  1
  O  O95  1  0.80171400  0.99720700  0.81046100  1
  O  O96  1  0.53721867  0.66559533  0.85565633  1
  O  O97  1  0.16657233  0.98441867  0.92241867  1
  O  O98  1  0.83085133  0.51529367  0.75658067  1
  O  O99  1  0.33440467  0.87162333  0.85565633  1
  O  O100  1  0.68444233  0.16914867  0.75658067  1
  O  O101  1  0.51786100  0.83365600  0.74336500  1
  O  O102  1  0.48470633  0.31555767  0.75658067  1
  O  O103  1  0.19549300  0.19828600  0.81046100  1
  O  O104  1  0.86011433  0.33029667  0.64257667  1
  O  O105  1  0.31579500  0.48213900  0.74336500  1
  O  O106  1  0.66970333  0.52981767  0.64257667  1
  O  O107  1  0.47018233  0.13988567  0.64257667  1
