# generated using pymatgen
data_FeO3
_symmetry_space_group_name_H-M   'P 1'
_cell_length_a   15.46951400
_cell_length_b   2.85698400
_cell_length_c   5.96375385
_cell_angle_alpha   90.00000000
_cell_angle_beta   111.11563951
_cell_angle_gamma   90.00000000
_symmetry_Int_Tables_number   1
_chemical_formula_structural   FeO3
_chemical_formula_sum   'Fe4 O12'
_cell_volume   245.87730320
_cell_formula_units_Z   4
loop_
 _symmetry_equiv_pos_site_id
 _symmetry_equiv_pos_as_xyz
  1  'x, y, z'
loop_
 _atom_site_type_symbol
 _atom_site_label
 _atom_site_symmetry_multiplicity
 _atom_site_fract_x
 _atom_site_fract_y
 _atom_site_fract_z
 _atom_site_occupancy
  Fe  Fe0  1  0.18749900  0.00000000  0.28170300  1
  Fe  Fe1  1  0.31250100  0.50000000  0.71829700  1
  Fe  Fe2  1  0.68749900  0.50000000  0.28170300  1
  Fe  Fe3  1  0.81250100  0.00000000  0.71829700  1
  O  O4  1  0.17874000  0.50000000  0.07666900  1
  O  O5  1  0.32520500  0.00000000  0.51495500  1
  O  O6  1  0.32126000  0.00000000  0.92333100  1
  O  O7  1  0.48165200  0.50000000  0.88942300  1
  O  O8  1  0.01834800  0.00000000  0.11057700  1
  O  O9  1  0.17479500  0.50000000  0.48504500  1
  O  O10  1  0.67874000  0.00000000  0.07666900  1
  O  O11  1  0.82520500  0.50000000  0.51495500  1
  O  O12  1  0.82126000  0.50000000  0.92333100  1
  O  O13  1  0.98165200  0.00000000  0.88942300  1
  O  O14  1  0.51834800  0.50000000  0.11057700  1
  O  O15  1  0.67479500  0.00000000  0.48504500  1
