# generated using pymatgen
data_CsBa2Cr2F11
_symmetry_space_group_name_H-M   'P 1'
_cell_length_a   6.11166800
_cell_length_b   6.11166800
_cell_length_c   15.56353800
_cell_angle_alpha   90.00000000
_cell_angle_beta   90.00000000
_cell_angle_gamma   90.00000000
_symmetry_Int_Tables_number   1
_chemical_formula_structural   CsBa2Cr2F11
_chemical_formula_sum   'Cs2 Ba4 Cr4 F22'
_cell_volume   581.33683124
_cell_formula_units_Z   2
loop_
 _symmetry_equiv_pos_site_id
 _symmetry_equiv_pos_as_xyz
  1  'x, y, z'
loop_
 _atom_site_type_symbol
 _atom_site_label
 _atom_site_symmetry_multiplicity
 _atom_site_fract_x
 _atom_site_fract_y
 _atom_site_fract_z
 _atom_site_occupancy
  Cs  Cs0  1  0.00000000  0.00000000  0.00000000  1
  Cs  Cs1  1  0.50000000  0.50000000  0.50000000  1
  Ba  Ba2  1  0.50000000  0.00000000  0.25000000  1
  Ba  Ba3  1  0.00000000  0.50000000  0.25000000  1
  Ba  Ba4  1  0.00000000  0.50000000  0.75000000  1
  Ba  Ba5  1  0.50000000  0.00000000  0.75000000  1
  Cr  Cr6  1  0.00000000  0.00000000  0.37479600  1
  Cr  Cr7  1  0.50000000  0.50000000  0.12520400  1
  Cr  Cr8  1  0.50000000  0.50000000  0.87479600  1
  Cr  Cr9  1  0.00000000  0.00000000  0.62520400  1
  F  F10  1  0.50000000  0.50000000  0.00000000  1
  F  F11  1  0.77516900  0.77516900  0.36634200  1
  F  F12  1  0.77516900  0.22483100  0.36634200  1
  F  F13  1  0.22483100  0.77516900  0.36634200  1
  F  F14  1  0.22483100  0.22483100  0.36634200  1
  F  F15  1  0.50000000  0.50000000  0.24972400  1
  F  F16  1  0.00000000  0.00000000  0.25027600  1
  F  F17  1  0.27516900  0.27516900  0.13365800  1
  F  F18  1  0.27516900  0.72483100  0.13365800  1
  F  F19  1  0.72483100  0.27516900  0.13365800  1
  F  F20  1  0.72483100  0.72483100  0.13365800  1
  F  F21  1  0.00000000  0.00000000  0.50000000  1
  F  F22  1  0.27516900  0.27516900  0.86634200  1
  F  F23  1  0.27516900  0.72483100  0.86634200  1
  F  F24  1  0.72483100  0.27516900  0.86634200  1
  F  F25  1  0.72483100  0.72483100  0.86634200  1
  F  F26  1  0.00000000  0.00000000  0.74972400  1
  F  F27  1  0.50000000  0.50000000  0.75027600  1
  F  F28  1  0.77516900  0.77516900  0.63365800  1
  F  F29  1  0.77516900  0.22483100  0.63365800  1
  F  F30  1  0.22483100  0.77516900  0.63365800  1
  F  F31  1  0.22483100  0.22483100  0.63365800  1
