# generated using pymatgen
data_MnV4NiO12
_symmetry_space_group_name_H-M   'P 1'
_cell_length_a   10.14719800
_cell_length_b   9.14335400
_cell_length_c   5.86392339
_cell_angle_alpha   90.00000000
_cell_angle_beta   111.00534612
_cell_angle_gamma   90.00000000
_symmetry_Int_Tables_number   1
_chemical_formula_structural   MnV4NiO12
_chemical_formula_sum   'Mn2 V8 Ni2 O24'
_cell_volume   507.89757311
_cell_formula_units_Z   2
loop_
 _symmetry_equiv_pos_site_id
 _symmetry_equiv_pos_as_xyz
  1  'x, y, z'
loop_
 _atom_site_type_symbol
 _atom_site_label
 _atom_site_symmetry_multiplicity
 _atom_site_fract_x
 _atom_site_fract_y
 _atom_site_fract_z
 _atom_site_occupancy
  Mn  Mn0  1  0.00000000  0.08537200  0.50000000  1
  Mn  Mn1  1  0.50000000  0.58537200  0.50000000  1
  V  V2  1  0.20387800  0.40871500  0.48896600  1
  V  V3  1  0.20155100  0.59245600  0.98361500  1
  V  V4  1  0.79612200  0.40871500  0.51103400  1
  V  V5  1  0.79844900  0.59245600  0.01638500  1
  V  V6  1  0.70387800  0.90871500  0.48896600  1
  V  V7  1  0.70155100  0.09245600  0.98361500  1
  V  V8  1  0.29612200  0.90871500  0.51103400  1
  V  V9  1  0.29844900  0.09245600  0.01638500  1
  Ni  Ni10  1  0.00000000  0.91371300  0.00000000  1
  Ni  Ni11  1  0.50000000  0.41371300  0.00000000  1
  O  O12  1  0.38460900  0.41865400  0.61845700  1
  O  O13  1  0.14837000  0.23462100  0.45910000  1
  O  O14  1  0.38230100  0.58116000  0.09774700  1
  O  O15  1  0.13582700  0.50167100  0.69286300  1
  O  O16  1  0.85163000  0.23462100  0.54090000  1
  O  O17  1  0.14196250  0.49733750  0.19633000  1
  O  O18  1  0.86417300  0.50167100  0.30713700  1
  O  O19  1  0.14317100  0.76584300  0.95855800  1
  O  O20  1  0.85803750  0.49733750  0.80367000  1
  O  O21  1  0.61539100  0.41865400  0.38154300  1
  O  O22  1  0.85682900  0.76584300  0.04144200  1
  O  O23  1  0.61769900  0.58116000  0.90225300  1
  O  O24  1  0.88460900  0.91865400  0.61845700  1
  O  O25  1  0.64837000  0.73462100  0.45910000  1
  O  O26  1  0.88230100  0.08116000  0.09774700  1
  O  O27  1  0.63582700  0.00167100  0.69286300  1
  O  O28  1  0.35163000  0.73462100  0.54090000  1
  O  O29  1  0.64196250  0.99733750  0.19633000  1
  O  O30  1  0.36417300  0.00167100  0.30713700  1
  O  O31  1  0.64317100  0.26584300  0.95855800  1
  O  O32  1  0.35803750  0.99733750  0.80367000  1
  O  O33  1  0.11539100  0.91865400  0.38154300  1
  O  O34  1  0.35682900  0.26584300  0.04144200  1
  O  O35  1  0.11769900  0.08116000  0.90225300  1
