# generated using pymatgen
data_Na4CrO3
_symmetry_space_group_name_H-M   'P 1'
_cell_length_a   11.40345000
_cell_length_b   5.83888000
_cell_length_c   8.26074941
_cell_angle_alpha   90.00000000
_cell_angle_beta   113.14632468
_cell_angle_gamma   90.00000000
_symmetry_Int_Tables_number   1
_chemical_formula_structural   Na4CrO3
_chemical_formula_sum   'Na16 Cr4 O12'
_cell_volume   505.75347579
_cell_formula_units_Z   4
loop_
 _symmetry_equiv_pos_site_id
 _symmetry_equiv_pos_as_xyz
  1  'x, y, z'
loop_
 _atom_site_type_symbol
 _atom_site_label
 _atom_site_symmetry_multiplicity
 _atom_site_fract_x
 _atom_site_fract_y
 _atom_site_fract_z
 _atom_site_occupancy
  Na  Na0  1  0.11374350  0.85722550  0.93720500  1
  Na  Na1  1  0.11374350  0.14277450  0.43720500  1
  Na  Na2  1  0.21659050  0.65672650  0.63801200  1
  Na  Na3  1  0.30292800  0.21210500  0.84429300  1
  Na  Na4  1  0.21659050  0.34327350  0.13801200  1
  Na  Na5  1  0.30292800  0.78789500  0.34429300  1
  Na  Na6  1  0.37807200  0.34362600  0.53210900  1
  Na  Na7  1  0.37807200  0.65637400  0.03210900  1
  Na  Na8  1  0.61374350  0.35722550  0.93720500  1
  Na  Na9  1  0.61374350  0.64277450  0.43720500  1
  Na  Na10  1  0.71659050  0.15672650  0.63801200  1
  Na  Na11  1  0.80292800  0.71210500  0.84429300  1
  Na  Na12  1  0.71659050  0.84327350  0.13801200  1
  Na  Na13  1  0.80292800  0.28789500  0.34429300  1
  Na  Na14  1  0.87807200  0.84362600  0.53210900  1
  Na  Na15  1  0.87807200  0.15637400  0.03210900  1
  Cr  Cr16  1  0.48433950  0.86196150  0.75091600  1
  Cr  Cr17  1  0.48433950  0.13803850  0.25091600  1
  Cr  Cr18  1  0.98433950  0.36196150  0.75091600  1
  Cr  Cr19  1  0.98433950  0.63803850  0.25091600  1
  O  O20  1  0.15237400  0.49763900  0.84964400  1
  O  O21  1  0.15237400  0.50236100  0.34964400  1
  O  O22  1  0.31316500  0.99314100  0.60559400  1
  O  O23  1  0.43134650  0.55306350  0.79459500  1
  O  O24  1  0.31316500  0.00685900  0.10559400  1
  O  O25  1  0.43134650  0.44693650  0.29459500  1
  O  O26  1  0.65237400  0.99763900  0.84964400  1
  O  O27  1  0.65237400  0.00236100  0.34964400  1
  O  O28  1  0.81316500  0.49314100  0.60559400  1
  O  O29  1  0.93134650  0.05306350  0.79459500  1
  O  O30  1  0.81316500  0.50685900  0.10559400  1
  O  O31  1  0.93134650  0.94693650  0.29459500  1
