# generated using pymatgen
data_LiMnPO4
_symmetry_space_group_name_H-M   'P 1'
_cell_length_a   8.83485020
_cell_length_b   8.83485020
_cell_length_c   8.19649500
_cell_angle_alpha   90.00000000
_cell_angle_beta   90.00000000
_cell_angle_gamma   120.00000000
_symmetry_Int_Tables_number   1
_chemical_formula_structural   LiMnPO4
_chemical_formula_sum   'Li6 Mn6 P6 O24'
_cell_volume   554.06050094
_cell_formula_units_Z   6
loop_
 _symmetry_equiv_pos_site_id
 _symmetry_equiv_pos_as_xyz
  1  'x, y, z'
loop_
 _atom_site_type_symbol
 _atom_site_label
 _atom_site_symmetry_multiplicity
 _atom_site_fract_x
 _atom_site_fract_y
 _atom_site_fract_z
 _atom_site_occupancy
  Li  Li0  1  0.66666667  0.33333333  0.67319700  1
  Li  Li1  1  0.66666667  0.33333333  0.18878900  1
  Li  Li2  1  0.00000000  0.00000000  0.60700600  1
  Li  Li3  1  0.00000000  0.00000000  0.10700600  1
  Li  Li4  1  0.33333333  0.66666667  0.17319700  1
  Li  Li5  1  0.33333333  0.66666667  0.68878900  1
  Mn  Mn6  1  0.68631500  0.65882200  0.90288600  1
  Mn  Mn7  1  0.34117800  0.02749300  0.90288600  1
  Mn  Mn8  1  0.97250700  0.31368500  0.90288600  1
  Mn  Mn9  1  0.02749300  0.68631500  0.40288600  1
  Mn  Mn10  1  0.65882200  0.97250700  0.40288600  1
  Mn  Mn11  1  0.31368500  0.34117800  0.40288600  1
  P  P12  1  0.68496900  0.64480000  0.51484700  1
  P  P13  1  0.35520000  0.04016900  0.51484700  1
  P  P14  1  0.95983100  0.31503100  0.51484700  1
  P  P15  1  0.04016900  0.68496900  0.01484700  1
  P  P16  1  0.64480000  0.95983100  0.01484700  1
  P  P17  1  0.31503100  0.35520000  0.01484700  1
  O  O18  1  0.93060400  0.77946100  0.01604100  1
  O  O19  1  0.72954500  0.58159800  0.67636900  1
  O  O20  1  0.75452100  0.57988100  0.37283800  1
  O  O21  1  0.51384100  0.42245100  0.00534800  1
  O  O22  1  0.90861000  0.48615900  0.00534800  1
  O  O23  1  0.22053900  0.15114300  0.01604100  1
  O  O24  1  0.42011900  0.17464000  0.37283800  1
  O  O25  1  0.41840200  0.14794700  0.67636900  1
  O  O26  1  0.15114300  0.93060400  0.51604100  1
  O  O27  1  0.85205300  0.27045500  0.67636900  1
  O  O28  1  0.82536000  0.24547900  0.37283800  1
  O  O29  1  0.57754900  0.09139000  0.00534800  1
  O  O30  1  0.42245100  0.90861000  0.50534800  1
  O  O31  1  0.17464000  0.75452100  0.87283800  1
  O  O32  1  0.14794700  0.72954500  0.17636900  1
  O  O33  1  0.84885700  0.06939600  0.01604100  1
  O  O34  1  0.58159800  0.85205300  0.17636900  1
  O  O35  1  0.57988100  0.82536000  0.87283800  1
  O  O36  1  0.77946100  0.84885700  0.51604100  1
  O  O37  1  0.09139000  0.51384100  0.50534800  1
  O  O38  1  0.48615900  0.57754900  0.50534800  1
  O  O39  1  0.24547900  0.42011900  0.87283800  1
  O  O40  1  0.27045500  0.41840200  0.17636900  1
  O  O41  1  0.06939600  0.22053900  0.51604100  1
