# generated using pymatgen
data_Pr2Fe17
_symmetry_space_group_name_H-M   'P 1'
_cell_length_a   8.59746270
_cell_length_b   8.59746270
_cell_length_c   12.52252622
_cell_angle_alpha   90.00000000
_cell_angle_beta   90.00000000
_cell_angle_gamma   120.00000000
_symmetry_Int_Tables_number   1
_chemical_formula_structural   Pr2Fe17
_chemical_formula_sum   'Pr6 Fe51'
_cell_volume   801.61010262
_cell_formula_units_Z   3
loop_
 _symmetry_equiv_pos_site_id
 _symmetry_equiv_pos_as_xyz
  1  'x, y, z'
loop_
 _atom_site_type_symbol
 _atom_site_label
 _atom_site_symmetry_multiplicity
 _atom_site_fract_x
 _atom_site_fract_y
 _atom_site_fract_z
 _atom_site_occupancy
  Pr  Pr0  1  0.33333333  0.66666667  0.32563767  1
  Pr  Pr1  1  0.33333333  0.66666667  0.00769567  1
  Pr  Pr2  1  0.00000000  0.00000000  0.65897100  1
  Pr  Pr3  1  0.00000000  0.00000000  0.34102900  1
  Pr  Pr4  1  0.66666667  0.33333333  0.99230433  1
  Pr  Pr5  1  0.66666667  0.33333333  0.67436233  1
  Fe  Fe6  1  0.16497567  0.83502433  0.17615733  1
  Fe  Fe7  1  0.16497567  0.32995133  0.17615733  1
  Fe  Fe8  1  0.33333333  0.66666667  0.76277967  1
  Fe  Fe9  1  0.33333333  0.66666667  0.57055367  1
  Fe  Fe10  1  0.16666667  0.83333333  0.83333333  1
  Fe  Fe11  1  0.33333333  0.16666667  0.16666667  1
  Fe  Fe12  1  0.83333333  0.66666667  0.16666667  1
  Fe  Fe13  1  0.95511867  0.62178533  0.33333333  1
  Fe  Fe14  1  1.00000000  0.71154800  0.00000000  1
  Fe  Fe15  1  0.71154800  0.00000000  0.00000000  1
  Fe  Fe16  1  0.37821467  0.04488133  0.33333333  1
  Fe  Fe17  1  1.00000000  0.28845200  0.00000000  1
  Fe  Fe18  1  0.28845200  0.00000000  0.00000000  1
  Fe  Fe19  1  0.50169100  0.00338200  0.15717600  1
  Fe  Fe20  1  0.50169100  0.49830900  0.15717600  1
  Fe  Fe21  1  0.99661800  0.49830900  0.15717600  1
  Fe  Fe22  1  0.67004867  0.83502433  0.17615733  1
  Fe  Fe23  1  0.83164233  0.16835767  0.50949067  1
  Fe  Fe24  1  0.83164233  0.66328467  0.50949067  1
  Fe  Fe25  1  0.00000000  0.00000000  0.09611300  1
  Fe  Fe26  1  0.00000000  0.00000000  0.90388700  1
  Fe  Fe27  1  0.83333333  0.16666667  0.16666667  1
  Fe  Fe28  1  0.00000000  0.50000000  0.50000000  1
  Fe  Fe29  1  0.50000000  0.00000000  0.50000000  1
  Fe  Fe30  1  0.62178533  0.95511867  0.66666667  1
  Fe  Fe31  1  0.66666667  0.04488133  0.33333333  1
  Fe  Fe32  1  0.37821467  0.33333333  0.33333333  1
  Fe  Fe33  1  0.04488133  0.37821467  0.66666667  1
  Fe  Fe34  1  0.66666667  0.62178533  0.33333333  1
  Fe  Fe35  1  0.95511867  0.33333333  0.33333333  1
  Fe  Fe36  1  0.16835767  0.33671533  0.49050933  1
  Fe  Fe37  1  0.16835767  0.83164233  0.49050933  1
  Fe  Fe38  1  0.66328467  0.83164233  0.49050933  1
  Fe  Fe39  1  0.33671533  0.16835767  0.50949067  1
  Fe  Fe40  1  0.49830900  0.50169100  0.84282400  1
  Fe  Fe41  1  0.49830900  0.99661800  0.84282400  1
  Fe  Fe42  1  0.66666667  0.33333333  0.42944633  1
  Fe  Fe43  1  0.66666667  0.33333333  0.23722033  1
  Fe  Fe44  1  0.50000000  0.50000000  0.50000000  1
  Fe  Fe45  1  0.66666667  0.83333333  0.83333333  1
  Fe  Fe46  1  0.16666667  0.33333333  0.83333333  1
  Fe  Fe47  1  0.28845200  0.28845200  0.00000000  1
  Fe  Fe48  1  0.33333333  0.37821467  0.66666667  1
  Fe  Fe49  1  0.04488133  0.66666667  0.66666667  1
  Fe  Fe50  1  0.71154800  0.71154800  0.00000000  1
  Fe  Fe51  1  0.33333333  0.95511867  0.66666667  1
  Fe  Fe52  1  0.62178533  0.66666667  0.66666667  1
  Fe  Fe53  1  0.83502433  0.67004867  0.82384267  1
  Fe  Fe54  1  0.83502433  0.16497567  0.82384267  1
  Fe  Fe55  1  0.32995133  0.16497567  0.82384267  1
  Fe  Fe56  1  0.00338200  0.50169100  0.84282400  1
