# generated using pymatgen
data_Co5SnO12
_symmetry_space_group_name_H-M   'P 1'
_cell_length_a   5.04350200
_cell_length_b   8.74334800
_cell_length_c   9.53172606
_cell_angle_alpha   90.00000000
_cell_angle_beta   90.05285526
_cell_angle_gamma   90.00000000
_symmetry_Int_Tables_number   1
_chemical_formula_structural   Co5SnO12
_chemical_formula_sum   'Co10 Sn2 O24'
_cell_volume   420.32123267
_cell_formula_units_Z   2
loop_
 _symmetry_equiv_pos_site_id
 _symmetry_equiv_pos_as_xyz
  1  'x, y, z'
loop_
 _atom_site_type_symbol
 _atom_site_label
 _atom_site_symmetry_multiplicity
 _atom_site_fract_x
 _atom_site_fract_y
 _atom_site_fract_z
 _atom_site_occupancy
  Co  Co0  1  0.00000000  0.16527700  0.50000000  1
  Co  Co1  1  0.50000000  0.16662000  0.00000000  1
  Co  Co2  1  0.00000000  0.33338000  0.00000000  1
  Co  Co3  1  0.50000000  0.33472300  0.50000000  1
  Co  Co4  1  0.50000000  0.00000000  0.50000000  1
  Co  Co5  1  0.50000000  0.66527700  0.50000000  1
  Co  Co6  1  0.00000000  0.66662000  0.00000000  1
  Co  Co7  1  0.50000000  0.83338000  0.00000000  1
  Co  Co8  1  0.00000000  0.83472300  0.50000000  1
  Co  Co9  1  0.00000000  0.50000000  0.50000000  1
  Sn  Sn10  1  0.00000000  0.00000000  0.00000000  1
  Sn  Sn11  1  0.50000000  0.50000000  0.00000000  1
  O  O12  1  0.18013350  0.18010350  0.10434700  1
  O  O13  1  0.81986650  0.18010350  0.89565300  1
  O  O14  1  0.16650650  0.33407650  0.40866500  1
  O  O15  1  0.66650650  0.16592350  0.40866500  1
  O  O16  1  0.83349350  0.33407650  0.59133500  1
  O  O17  1  0.83421300  0.00000000  0.59521900  1
  O  O18  1  0.33349350  0.16592350  0.59133500  1
  O  O19  1  0.68013350  0.31989650  0.10434700  1
  O  O20  1  0.63998700  0.00000000  0.10440200  1
  O  O21  1  0.31986650  0.31989650  0.89565300  1
  O  O22  1  0.36001300  0.00000000  0.89559800  1
  O  O23  1  0.16578700  0.00000000  0.40478100  1
  O  O24  1  0.68013350  0.68010350  0.10434700  1
  O  O25  1  0.31986650  0.68010350  0.89565300  1
  O  O26  1  0.66650650  0.83407650  0.40866500  1
  O  O27  1  0.16650650  0.66592350  0.40866500  1
  O  O28  1  0.33349350  0.83407650  0.59133500  1
  O  O29  1  0.33421300  0.50000000  0.59521900  1
  O  O30  1  0.83349350  0.66592350  0.59133500  1
  O  O31  1  0.18013350  0.81989650  0.10434700  1
  O  O32  1  0.13998700  0.50000000  0.10440200  1
  O  O33  1  0.81986650  0.81989650  0.89565300  1
  O  O34  1  0.86001300  0.50000000  0.89559800  1
  O  O35  1  0.66578700  0.50000000  0.40478100  1
