# generated using pymatgen
data_LiVP2HO8
_symmetry_space_group_name_H-M   'P 1'
_cell_length_a   7.47108700
_cell_length_b   7.94483500
_cell_length_c   9.73893594
_cell_angle_alpha   90.00000000
_cell_angle_beta   104.96861631
_cell_angle_gamma   90.00000000
_symmetry_Int_Tables_number   1
_chemical_formula_structural   LiVP2HO8
_chemical_formula_sum   'Li4 V4 P8 H4 O32'
_cell_volume   558.45429342
_cell_formula_units_Z   4
loop_
 _symmetry_equiv_pos_site_id
 _symmetry_equiv_pos_as_xyz
  1  'x, y, z'
loop_
 _atom_site_type_symbol
 _atom_site_label
 _atom_site_symmetry_multiplicity
 _atom_site_fract_x
 _atom_site_fract_y
 _atom_site_fract_z
 _atom_site_occupancy
  Li  Li0  1  0.39420300  0.86976200  0.66790300  1
  Li  Li1  1  0.89713200  0.63094500  0.92558300  1
  Li  Li2  1  0.10286800  0.13094500  0.07441700  1
  Li  Li3  1  0.60579700  0.36976200  0.33209700  1
  V  V4  1  0.24819700  0.49340400  0.62390000  1
  V  V5  1  0.74181100  0.00766700  0.87400900  1
  V  V6  1  0.25818900  0.50766700  0.12599100  1
  V  V7  1  0.75180300  0.99340400  0.37610000  1
  P  P8  1  0.52019200  0.65254900  0.44426100  1
  P  P9  1  0.47980800  0.15254900  0.55573900  1
  P  P10  1  0.01053700  0.84444200  0.68782100  1
  P  P11  1  0.98612300  0.34768300  0.80838600  1
  P  P12  1  0.51676900  0.64721200  0.93535200  1
  P  P13  1  0.48323100  0.14721200  0.06464800  1
  P  P14  1  0.01387700  0.84768300  0.19161400  1
  P  P15  1  0.98946300  0.34444200  0.31217900  1
  H  H16  1  0.75679600  0.49228300  0.63562400  1
  H  H17  1  0.23517600  0.99253200  0.85693100  1
  H  H18  1  0.76482400  0.49253200  0.14306900  1
  H  H19  1  0.24320400  0.99228300  0.36437600  1
  O  O20  1  0.10108500  0.44735000  0.44141600  1
  O  O21  1  0.56800100  0.82684300  0.39700800  1
  O  O22  1  0.60774600  0.17261100  0.45359200  1
  O  O23  1  0.69022200  0.54375500  0.50319600  1
  O  O24  1  0.89891500  0.94735000  0.55858400  1
  O  O25  1  0.06604700  0.67222200  0.64245900  1
  O  O26  1  0.30977800  0.04375500  0.49680400  1
  O  O27  1  0.39225400  0.67261100  0.54640800  1
  O  O28  1  0.10889600  0.32531400  0.70536600  1
  O  O29  1  0.19506200  0.94120000  0.75282400  1
  O  O30  1  0.43199900  0.32684300  0.60299200  1
  O  O31  1  0.59603600  0.05082700  0.69003300  1
  O  O32  1  0.80872100  0.45221300  0.74804700  1
  O  O33  1  0.89245000  0.83018600  0.79681600  1
  O  O34  1  0.93518600  0.17515300  0.86234500  1
  O  O35  1  0.09406200  0.44948800  0.94227900  1
  O  O36  1  0.40050400  0.54835700  0.80407200  1
  O  O37  1  0.55693900  0.82416800  0.88101400  1
  O  O38  1  0.61064900  0.16347100  0.96112800  1
  O  O39  1  0.69872000  0.56051500  0.00561600  1
  O  O40  1  0.90593800  0.94948800  0.05772100  1
  O  O41  1  0.06481400  0.67515300  0.13765500  1
  O  O42  1  0.30128000  0.06051500  0.99438400  1
  O  O43  1  0.38935100  0.66347100  0.03887200  1
  O  O44  1  0.10755000  0.33018600  0.20318400  1
  O  O45  1  0.19127900  0.95221300  0.25195300  1
  O  O46  1  0.44306100  0.32416800  0.11898600  1
  O  O47  1  0.59949600  0.04835700  0.19592800  1
  O  O48  1  0.80493800  0.44120000  0.24717600  1
  O  O49  1  0.89110400  0.82531400  0.29463400  1
  O  O50  1  0.93395300  0.17222200  0.35754100  1
  O  O51  1  0.40396400  0.55082700  0.30996700  1
