# generated using pymatgen
data_Li12Mg3Si4
_symmetry_space_group_name_H-M   'P 1'
_cell_length_a   10.68491200
_cell_length_b   10.68491200
_cell_length_c   10.68491200
_cell_angle_alpha   90.00000000
_cell_angle_beta   90.00000000
_cell_angle_gamma   90.00000000
_symmetry_Int_Tables_number   1
_chemical_formula_structural   Li12Mg3Si4
_chemical_formula_sum   'Li48 Mg12 Si16'
_cell_volume   1219.86802870
_cell_formula_units_Z   4
loop_
 _symmetry_equiv_pos_site_id
 _symmetry_equiv_pos_as_xyz
  1  'x, y, z'
loop_
 _atom_site_type_symbol
 _atom_site_label
 _atom_site_symmetry_multiplicity
 _atom_site_fract_x
 _atom_site_fract_y
 _atom_site_fract_z
 _atom_site_occupancy
  Li  Li0  1  0.90036000  0.36939600  0.28704900  1
  Li  Li1  1  0.88060400  0.15036000  0.46295100  1
  Li  Li2  1  0.11939600  0.34964000  0.46295100  1
  Li  Li3  1  0.34964000  0.53704900  0.38060400  1
  Li  Li4  1  0.34964000  0.46295100  0.11939600  1
  Li  Li5  1  0.46295100  0.88060400  0.15036000  1
  Li  Li6  1  0.53704900  0.38060400  0.34964000  1
  Li  Li7  1  0.71295100  0.59964000  0.36939600  1
  Li  Li8  1  0.13060400  0.28704900  0.09964000  1
  Li  Li9  1  0.28704900  0.09964000  0.13060400  1
  Li  Li10  1  0.63060400  0.21295100  0.90036000  1
  Li  Li11  1  0.28704900  0.90036000  0.36939600  1
  Li  Li12  1  0.36939600  0.28704900  0.90036000  1
  Li  Li13  1  0.36939600  0.71295100  0.59964000  1
  Li  Li14  1  0.21295100  0.90036000  0.63060400  1
  Li  Li15  1  0.09964000  0.13060400  0.28704900  1
  Li  Li16  1  0.90036000  0.63060400  0.21295100  1
  Li  Li17  1  0.59964000  0.36939600  0.71295100  1
  Li  Li18  1  0.11939600  0.65036000  0.03704900  1
  Li  Li19  1  0.15036000  0.46295100  0.88060400  1
  Li  Li20  1  0.46295100  0.11939600  0.34964000  1
  Li  Li21  1  0.38060400  0.34964000  0.53704900  1
  Li  Li22  1  0.65036000  0.03704900  0.11939600  1
  Li  Li23  1  0.03704900  0.11939600  0.65036000  1
  Li  Li24  1  0.40036000  0.86939600  0.78704900  1
  Li  Li25  1  0.38060400  0.65036000  0.96295100  1
  Li  Li26  1  0.61939600  0.84964000  0.96295100  1
  Li  Li27  1  0.84964000  0.03704900  0.88060400  1
  Li  Li28  1  0.84964000  0.96295100  0.61939600  1
  Li  Li29  1  0.96295100  0.38060400  0.65036000  1
  Li  Li30  1  0.03704900  0.88060400  0.84964000  1
  Li  Li31  1  0.21295100  0.09964000  0.86939600  1
  Li  Li32  1  0.63060400  0.78704900  0.59964000  1
  Li  Li33  1  0.78704900  0.59964000  0.63060400  1
  Li  Li34  1  0.13060400  0.71295100  0.40036000  1
  Li  Li35  1  0.78704900  0.40036000  0.86939600  1
  Li  Li36  1  0.86939600  0.78704900  0.40036000  1
  Li  Li37  1  0.86939600  0.21295100  0.09964000  1
  Li  Li38  1  0.71295100  0.40036000  0.13060400  1
  Li  Li39  1  0.59964000  0.63060400  0.78704900  1
  Li  Li40  1  0.40036000  0.13060400  0.71295100  1
  Li  Li41  1  0.09964000  0.86939600  0.21295100  1
  Li  Li42  1  0.61939600  0.15036000  0.53704900  1
  Li  Li43  1  0.65036000  0.96295100  0.38060400  1
  Li  Li44  1  0.96295100  0.61939600  0.84964000  1
  Li  Li45  1  0.88060400  0.84964000  0.03704900  1
  Li  Li46  1  0.15036000  0.53704900  0.61939600  1
  Li  Li47  1  0.53704900  0.61939600  0.15036000  1
  Mg  Mg48  1  0.25000000  0.12500000  0.50000000  1
  Mg  Mg49  1  0.12500000  0.50000000  0.25000000  1
  Mg  Mg50  1  0.37500000  0.50000000  0.75000000  1
  Mg  Mg51  1  0.50000000  0.25000000  0.12500000  1
  Mg  Mg52  1  0.50000000  0.75000000  0.37500000  1
  Mg  Mg53  1  0.75000000  0.37500000  0.50000000  1
  Mg  Mg54  1  0.75000000  0.62500000  0.00000000  1
  Mg  Mg55  1  0.62500000  0.00000000  0.75000000  1
  Mg  Mg56  1  0.87500000  0.00000000  0.25000000  1
  Mg  Mg57  1  0.00000000  0.75000000  0.62500000  1
  Mg  Mg58  1  0.00000000  0.25000000  0.87500000  1
  Mg  Mg59  1  0.25000000  0.87500000  0.00000000  1
  Si  Si60  1  0.95322400  0.45322400  0.04677600  1
  Si  Si61  1  0.79677600  0.20322400  0.70322400  1
  Si  Si62  1  0.70322400  0.79677600  0.20322400  1
  Si  Si63  1  0.29677600  0.29677600  0.29677600  1
  Si  Si64  1  0.45322400  0.04677600  0.95322400  1
  Si  Si65  1  0.04677600  0.04677600  0.04677600  1
  Si  Si66  1  0.04677600  0.95322400  0.45322400  1
  Si  Si67  1  0.20322400  0.70322400  0.79677600  1
  Si  Si68  1  0.45322400  0.95322400  0.54677600  1
  Si  Si69  1  0.29677600  0.70322400  0.20322400  1
  Si  Si70  1  0.20322400  0.29677600  0.70322400  1
  Si  Si71  1  0.79677600  0.79677600  0.79677600  1
  Si  Si72  1  0.95322400  0.54677600  0.45322400  1
  Si  Si73  1  0.54677600  0.54677600  0.54677600  1
  Si  Si74  1  0.54677600  0.45322400  0.95322400  1
  Si  Si75  1  0.70322400  0.20322400  0.29677600  1
