# generated using pymatgen
data_Na2VO3
_symmetry_space_group_name_H-M   'P 1'
_cell_length_a   6.37672850
_cell_length_b   11.09230400
_cell_length_c   4.98515400
_cell_angle_alpha   90.00000000
_cell_angle_beta   90.00000000
_cell_angle_gamma   90.00000000
_symmetry_Int_Tables_number   1
_chemical_formula_structural   Na2VO3
_chemical_formula_sum   'Na8 V4 O12'
_cell_volume   352.61295895
_cell_formula_units_Z   4
loop_
 _symmetry_equiv_pos_site_id
 _symmetry_equiv_pos_as_xyz
  1  'x, y, z'
loop_
 _atom_site_type_symbol
 _atom_site_label
 _atom_site_symmetry_multiplicity
 _atom_site_fract_x
 _atom_site_fract_y
 _atom_site_fract_z
 _atom_site_occupancy
  Na  Na0  1  0.33442200  0.66573850  0.00963100  1
  Na  Na1  1  0.66557800  0.66573850  0.50963100  1
  Na  Na2  1  0.16557800  0.83426150  0.50963100  1
  Na  Na3  1  0.83442200  0.83426150  0.00963100  1
  Na  Na4  1  0.83442200  0.16573850  0.00963100  1
  Na  Na5  1  0.16557800  0.16573850  0.50963100  1
  Na  Na6  1  0.66557800  0.33426150  0.50963100  1
  Na  Na7  1  0.33442200  0.33426150  0.00963100  1
  V  V8  1  0.32944050  0.00000000  0.04282650  1
  V  V9  1  0.17055950  0.50000000  0.54282650  1
  V  V10  1  0.82944050  0.50000000  0.04282650  1
  V  V11  1  0.67055950  0.00000000  0.54282650  1
  O  O12  1  0.38692250  0.00000000  0.41904300  1
  O  O13  1  0.11307750  0.50000000  0.91904300  1
  O  O14  1  0.69981725  0.63887675  0.98844300  1
  O  O15  1  0.30018275  0.63887675  0.48844300  1
  O  O16  1  0.19981725  0.86112325  0.98844300  1
  O  O17  1  0.80018275  0.86112325  0.48844300  1
  O  O18  1  0.88692250  0.50000000  0.41904300  1
  O  O19  1  0.61307750  0.00000000  0.91904300  1
  O  O20  1  0.19981725  0.13887675  0.98844300  1
  O  O21  1  0.80018275  0.13887675  0.48844300  1
  O  O22  1  0.69981725  0.36112325  0.98844300  1
  O  O23  1  0.30018275  0.36112325  0.48844300  1
