# generated using pymatgen
data_P3(WO6)2
_symmetry_space_group_name_H-M   'P 1'
_cell_length_a   8.70542998
_cell_length_b   8.70542998
_cell_length_c   22.74487840
_cell_angle_alpha   90.00000000
_cell_angle_beta   90.00000000
_cell_angle_gamma   120.00000000
_symmetry_Int_Tables_number   1
_chemical_formula_structural   P3(WO6)2
_chemical_formula_sum   'P18 W12 O72'
_cell_volume   1492.77620613
_cell_formula_units_Z   6
loop_
 _symmetry_equiv_pos_site_id
 _symmetry_equiv_pos_as_xyz
  1  'x, y, z'
loop_
 _atom_site_type_symbol
 _atom_site_label
 _atom_site_symmetry_multiplicity
 _atom_site_fract_x
 _atom_site_fract_y
 _atom_site_fract_z
 _atom_site_occupancy
  P  P0  1  0.99809500  0.28274000  0.24989600  1
  P  P1  1  0.71726000  0.71535500  0.24989600  1
  P  P2  1  0.28464500  0.00190500  0.24989600  1
  P  P3  1  0.38202167  0.33142833  0.08343733  1
  P  P4  1  0.94940667  0.61797833  0.08343733  1
  P  P5  1  0.66857167  0.05059333  0.08343733  1
  P  P6  1  0.66476167  0.61607333  0.58322933  1
  P  P7  1  0.38392667  0.04868833  0.58322933  1
  P  P8  1  0.95131167  0.33523833  0.58322933  1
  P  P9  1  0.04868833  0.66476167  0.41677067  1
  P  P10  1  0.61607333  0.95131167  0.41677067  1
  P  P11  1  0.33523833  0.38392667  0.41677067  1
  P  P12  1  0.33142833  0.94940667  0.91656267  1
  P  P13  1  0.05059333  0.38202167  0.91656267  1
  P  P14  1  0.61797833  0.66857167  0.91656267  1
  P  P15  1  0.71535500  0.99809500  0.75010400  1
  P  P16  1  0.28274000  0.28464500  0.75010400  1
  P  P17  1  0.00190500  0.71726000  0.75010400  1
  W  W18  1  0.66666667  0.33333333  0.18954933  1
  W  W19  1  0.33333333  0.66666667  0.31225767  1
  W  W20  1  0.33333333  0.66666667  0.02107567  1
  W  W21  1  0.00000000  0.00000000  0.14378400  1
  W  W22  1  0.33333333  0.66666667  0.52288267  1
  W  W23  1  0.00000000  0.00000000  0.64559100  1
  W  W24  1  0.00000000  0.00000000  0.35440900  1
  W  W25  1  0.66666667  0.33333333  0.47711733  1
  W  W26  1  0.00000000  0.00000000  0.85621600  1
  W  W27  1  0.66666667  0.33333333  0.97892433  1
  W  W28  1  0.66666667  0.33333333  0.68774233  1
  W  W29  1  0.33333333  0.66666667  0.81045067  1
  O  O30  1  0.73266867  0.18489533  0.03291033  1
  O  O31  1  0.45222667  0.26733133  0.03291033  1
  O  O32  1  0.81510467  0.54777333  0.03291033  1
  O  O33  1  0.17797933  0.44749067  0.26079567  1
  O  O34  1  0.85125133  0.33120767  0.24019167  1
  O  O35  1  0.01422833  0.19681467  0.19187467  1
  O  O36  1  0.66879233  0.52004367  0.24019167  1
  O  O37  1  0.55250933  0.73048867  0.26079567  1
  O  O38  1  0.26951133  0.82202067  0.26079567  1
  O  O39  1  0.48408033  0.34756167  0.14145867  1
  O  O40  1  0.18671033  0.18458467  0.09314167  1
  O  O41  1  0.86348133  0.51591967  0.14145867  1
  O  O42  1  0.80318533  0.81741367  0.19187467  1
  O  O43  1  0.47995633  0.14874867  0.24019167  1
  O  O44  1  0.18258633  0.98577167  0.19187467  1
  O  O45  1  0.39715533  0.51131267  0.07253767  1
  O  O46  1  0.11415733  0.60284467  0.07253767  1
  O  O47  1  0.99787433  0.81328967  0.09314167  1
  O  O48  1  0.65243833  0.13651867  0.14145867  1
  O  O49  1  0.81541533  0.00212567  0.09314167  1
  O  O50  1  0.48868733  0.88584267  0.07253767  1
  O  O51  1  0.85156200  0.78556000  0.30042300  1
  O  O52  1  0.21444000  0.06600200  0.30042300  1
  O  O53  1  0.93399800  0.14843800  0.30042300  1
  O  O54  1  0.39933533  0.51822867  0.36624367  1
  O  O55  1  0.11889333  0.60066467  0.36624367  1
  O  O56  1  0.48177133  0.88110667  0.36624367  1
  O  O57  1  0.84464600  0.78082400  0.59412900  1
  O  O58  1  0.51791800  0.66454100  0.57352500  1
  O  O59  1  0.68089500  0.53014800  0.52520800  1
  O  O60  1  0.33545900  0.85337700  0.57352500  1
  O  O61  1  0.21917600  0.06382200  0.59412900  1
  O  O62  1  0.93617800  0.15535400  0.59412900  1
  O  O63  1  0.15074700  0.68089500  0.47479200  1
  O  O64  1  0.85337700  0.51791800  0.42647500  1
  O  O65  1  0.53014800  0.84925300  0.47479200  1
  O  O66  1  0.46985200  0.15074700  0.52520800  1
  O  O67  1  0.14662300  0.48208200  0.57352500  1
  O  O68  1  0.84925300  0.31910500  0.52520800  1
  O  O69  1  0.06382200  0.84464600  0.40587100  1
  O  O70  1  0.78082400  0.93617800  0.40587100  1
  O  O71  1  0.66454100  0.14662300  0.42647500  1
  O  O72  1  0.31910500  0.46985200  0.47479200  1
  O  O73  1  0.48208200  0.33545900  0.42647500  1
  O  O74  1  0.15535400  0.21917600  0.40587100  1
  O  O75  1  0.51822867  0.11889333  0.63375633  1
  O  O76  1  0.88110667  0.39933533  0.63375633  1
  O  O77  1  0.60066467  0.48177133  0.63375633  1
  O  O78  1  0.06600200  0.85156200  0.69957700  1
  O  O79  1  0.78556000  0.93399800  0.69957700  1
  O  O80  1  0.14843800  0.21444000  0.69957700  1
  O  O81  1  0.51131267  0.11415733  0.92746233  1
  O  O82  1  0.18458467  0.99787433  0.90685833  1
  O  O83  1  0.34756167  0.86348133  0.85854133  1
  O  O84  1  0.00212567  0.18671033  0.90685833  1
  O  O85  1  0.88584267  0.39715533  0.92746233  1
  O  O86  1  0.60284467  0.48868733  0.92746233  1
  O  O87  1  0.81741367  0.01422833  0.80812533  1
  O  O88  1  0.52004367  0.85125133  0.75980833  1
  O  O89  1  0.19681467  0.18258633  0.80812533  1
  O  O90  1  0.13651867  0.48408033  0.85854133  1
  O  O91  1  0.81328967  0.81541533  0.90685833  1
  O  O92  1  0.51591967  0.65243833  0.85854133  1
  O  O93  1  0.73048867  0.17797933  0.73920433  1
  O  O94  1  0.44749067  0.26951133  0.73920433  1
  O  O95  1  0.33120767  0.47995633  0.75980833  1
  O  O96  1  0.98577167  0.80318533  0.80812533  1
  O  O97  1  0.14874867  0.66879233  0.75980833  1
  O  O98  1  0.82202067  0.55250933  0.73920433  1
  O  O99  1  0.18489533  0.45222667  0.96708967  1
  O  O100  1  0.54777333  0.73266867  0.96708967  1
  O  O101  1  0.26733133  0.81510467  0.96708967  1
