# generated using pymatgen
data_LiVP2O7
_symmetry_space_group_name_H-M   'P 1'
_cell_length_a   5.81923577
_cell_length_b   7.20243634
_cell_length_c   7.24691975
_cell_angle_alpha   74.96291372
_cell_angle_beta   83.92854649
_cell_angle_gamma   67.38987838
_symmetry_Int_Tables_number   1
_chemical_formula_structural   LiVP2O7
_chemical_formula_sum   'Li2 V2 P4 O14'
_cell_volume   270.78583269
_cell_formula_units_Z   2
loop_
 _symmetry_equiv_pos_site_id
 _symmetry_equiv_pos_as_xyz
  1  'x, y, z'
loop_
 _atom_site_type_symbol
 _atom_site_label
 _atom_site_symmetry_multiplicity
 _atom_site_fract_x
 _atom_site_fract_y
 _atom_site_fract_z
 _atom_site_occupancy
  Li  Li0  1  0.08995900  0.82274300  0.64607300  1
  Li  Li1  1  0.91004100  0.17725700  0.35392700  1
  V  V2  1  0.29803500  0.09783900  0.80413600  1
  V  V3  1  0.70196500  0.90216100  0.19586400  1
  P  P4  1  0.78266600  0.23176200  0.80715000  1
  P  P5  1  0.65949900  0.68382600  0.64817400  1
  P  P6  1  0.34050100  0.31617400  0.35182600  1
  P  P7  1  0.21733400  0.76823800  0.19285000  1
  O  O8  1  0.02054200  0.78458400  0.05551800  1
  O  O9  1  0.59872300  0.12841600  0.91259200  1
  O  O10  1  0.60927400  0.46812400  0.73193600  1
  O  O11  1  0.88638800  0.67294200  0.73389400  1
  O  O12  1  0.93380900  0.13305300  0.64718300  1
  O  O13  1  0.40982000  0.84270100  0.70323000  1
  O  O14  1  0.33825400  0.28956100  0.57051400  1
  O  O15  1  0.66174600  0.71043900  0.42948600  1
  O  O16  1  0.59018000  0.15729900  0.29677000  1
  O  O17  1  0.06619100  0.86694700  0.35281700  1
  O  O18  1  0.11361200  0.32705800  0.26610600  1
  O  O19  1  0.39072600  0.53187600  0.26806400  1
  O  O20  1  0.40127700  0.87158400  0.08740800  1
  O  O21  1  0.97945800  0.21541600  0.94448200  1
