# generated using pymatgen
data_V3Co5O16
_symmetry_space_group_name_H-M   'P 1'
_cell_length_a   9.74297400
_cell_length_b   5.71537000
_cell_length_c   8.79226237
_cell_angle_alpha   90.00000000
_cell_angle_beta   90.36598204
_cell_angle_gamma   90.00000000
_symmetry_Int_Tables_number   1
_chemical_formula_structural   V3Co5O16
_chemical_formula_sum   'V6 Co10 O32'
_cell_volume   489.58451575
_cell_formula_units_Z   2
loop_
 _symmetry_equiv_pos_site_id
 _symmetry_equiv_pos_as_xyz
  1  'x, y, z'
loop_
 _atom_site_type_symbol
 _atom_site_label
 _atom_site_symmetry_multiplicity
 _atom_site_fract_x
 _atom_site_fract_y
 _atom_site_fract_z
 _atom_site_occupancy
  V  V0  1  0.84773400  0.00000000  0.21258600  1
  V  V1  1  0.42143700  0.25165800  0.70913100  1
  V  V2  1  0.42143700  0.74834200  0.70913100  1
  V  V3  1  0.34773400  0.50000000  0.21258600  1
  V  V4  1  0.92143700  0.75165800  0.70913100  1
  V  V5  1  0.92143700  0.24834200  0.70913100  1
  Co  Co6  1  0.58674600  0.24617100  0.20700600  1
  Co  Co7  1  0.66402800  0.00000000  0.47711300  1
  Co  Co8  1  0.58674600  0.75382900  0.20700600  1
  Co  Co9  1  0.16914500  0.00000000  0.71160000  1
  Co  Co10  1  0.33051400  0.00000000  0.98361100  1
  Co  Co11  1  0.08674600  0.74617100  0.20700600  1
  Co  Co12  1  0.16402800  0.50000000  0.47711300  1
  Co  Co13  1  0.08674600  0.25382900  0.20700600  1
  Co  Co14  1  0.66914500  0.50000000  0.71160000  1
  Co  Co15  1  0.83051400  0.50000000  0.98361100  1
  O  O16  1  0.57689500  0.23772700  0.60034500  1
  O  O17  1  0.52179100  0.00000000  0.33093200  1
  O  O18  1  0.66784000  0.00000000  0.10004600  1
  O  O19  1  0.00374100  0.00000000  0.32639700  1
  O  O20  1  0.99818100  0.00000000  0.82442400  1
  O  O21  1  0.57689500  0.76227300  0.60034500  1
  O  O22  1  0.73846350  0.21581150  0.33827700  1
  O  O23  1  0.73846350  0.78418850  0.33827700  1
  O  O24  1  0.16351500  0.00000000  0.10429400  1
  O  O25  1  0.82805100  0.00000000  0.60624500  1
  O  O26  1  0.26103850  0.21439250  0.83937800  1
  O  O27  1  0.26103850  0.78560750  0.83937800  1
  O  O28  1  0.33401400  0.00000000  0.59801700  1
  O  O29  1  0.41196100  0.24786200  0.10364200  1
  O  O30  1  0.47853700  0.00000000  0.84472900  1
  O  O31  1  0.41196100  0.75213800  0.10364200  1
  O  O32  1  0.07689500  0.73772700  0.60034500  1
  O  O33  1  0.02179100  0.50000000  0.33093200  1
  O  O34  1  0.16784000  0.50000000  0.10004600  1
  O  O35  1  0.50374100  0.50000000  0.32639700  1
  O  O36  1  0.49818100  0.50000000  0.82442400  1
  O  O37  1  0.07689500  0.26227300  0.60034500  1
  O  O38  1  0.23846350  0.71581150  0.33827700  1
  O  O39  1  0.23846350  0.28418850  0.33827700  1
  O  O40  1  0.66351500  0.50000000  0.10429400  1
  O  O41  1  0.32805100  0.50000000  0.60624500  1
  O  O42  1  0.76103850  0.71439250  0.83937800  1
  O  O43  1  0.76103850  0.28560750  0.83937800  1
  O  O44  1  0.83401400  0.50000000  0.59801700  1
  O  O45  1  0.91196100  0.74786200  0.10364200  1
  O  O46  1  0.97853700  0.50000000  0.84472900  1
  O  O47  1  0.91196100  0.25213800  0.10364200  1
