# generated using pymatgen
data_V3Cr2Sn(PO4)6
_symmetry_space_group_name_H-M   'P 1'
_cell_length_a   8.67482890
_cell_length_b   8.67482890
_cell_length_c   21.20680471
_cell_angle_alpha   90.00000000
_cell_angle_beta   90.00000000
_cell_angle_gamma   120.00000000
_symmetry_Int_Tables_number   1
_chemical_formula_structural   V3Cr2Sn(PO4)6
_chemical_formula_sum   'V9 Cr6 Sn3 P18 O72'
_cell_volume   1382.06256457
_cell_formula_units_Z   3
loop_
 _symmetry_equiv_pos_site_id
 _symmetry_equiv_pos_as_xyz
  1  'x, y, z'
loop_
 _atom_site_type_symbol
 _atom_site_label
 _atom_site_symmetry_multiplicity
 _atom_site_fract_x
 _atom_site_fract_y
 _atom_site_fract_z
 _atom_site_occupancy
  V  V0  1  0.33333333  0.66666667  0.02290167  1
  V  V1  1  0.33333333  0.66666667  0.81021967  1
  V  V2  1  0.33333333  0.66666667  0.30914867  1
  V  V3  1  0.00000000  0.00000000  0.35623500  1
  V  V4  1  0.00000000  0.00000000  0.14355300  1
  V  V5  1  0.00000000  0.00000000  0.64248200  1
  V  V6  1  0.66666667  0.33333333  0.68956833  1
  V  V7  1  0.66666667  0.33333333  0.47688633  1
  V  V8  1  0.66666667  0.33333333  0.97581533  1
  Cr  Cr9  1  0.33333333  0.66666667  0.66919867  1
  Cr  Cr10  1  0.33333333  0.66666667  0.16597567  1
  Cr  Cr11  1  0.00000000  0.00000000  0.00253200  1
  Cr  Cr12  1  0.00000000  0.00000000  0.49930900  1
  Cr  Cr13  1  0.66666667  0.33333333  0.33586533  1
  Cr  Cr14  1  0.66666667  0.33333333  0.83264233  1
  Sn  Sn15  1  0.33333333  0.66666667  0.52206067  1
  Sn  Sn16  1  0.00000000  0.00000000  0.85539400  1
  Sn  Sn17  1  0.66666667  0.33333333  0.18872733  1
  P  P18  1  0.66630333  0.63020667  0.08176767  1
  P  P19  1  0.96390333  0.33369667  0.08176767  1
  P  P20  1  0.36979333  0.03609667  0.08176767  1
  P  P21  1  0.28894067  0.29269233  0.25012333  1
  P  P22  1  0.70730767  0.99624833  0.25012333  1
  P  P23  1  0.00375167  0.71105933  0.25012333  1
  P  P24  1  0.33297000  0.96354000  0.41510100  1
  P  P25  1  0.63057000  0.66703000  0.41510100  1
  P  P26  1  0.03646000  0.36943000  0.41510100  1
  P  P27  1  0.95560733  0.62602567  0.58345667  1
  P  P28  1  0.37397433  0.32958167  0.58345667  1
  P  P29  1  0.67041833  0.04439267  0.58345667  1
  P  P30  1  0.99963667  0.29687333  0.74843433  1
  P  P31  1  0.29723667  0.00036333  0.74843433  1
  P  P32  1  0.70312667  0.70276333  0.74843433  1
  P  P33  1  0.62227400  0.95935900  0.91679000  1
  P  P34  1  0.04064100  0.66291500  0.91679000  1
  P  P35  1  0.33708500  0.37772600  0.91679000  1
  O  O36  1  0.52810733  0.66558067  0.35717567  1
  O  O37  1  0.13747333  0.47189267  0.35717567  1
  O  O38  1  0.33441933  0.86252667  0.35717567  1
  O  O39  1  0.83428367  0.81975933  0.07695333  1
  O  O40  1  0.66497467  0.53806433  0.14467133  1
  O  O41  1  0.49863167  0.65207033  0.08799833  1
  O  O42  1  0.98547567  0.16571633  0.07695333  1
  O  O43  1  0.15343867  0.50136833  0.08799833  1
  O  O44  1  0.19683167  0.19587333  0.18981933  1
  O  O45  1  0.34792967  0.84656133  0.08799833  1
  O  O46  1  0.48180800  0.31405500  0.25782600  1
  O  O47  1  0.80412667  0.00095833  0.18981933  1
  O  O48  1  0.87308967  0.33502533  0.14467133  1
  O  O49  1  0.18024067  0.01452433  0.07695333  1
  O  O50  1  0.31523367  0.48413533  0.24370533  1
  O  O51  1  0.46193567  0.12691033  0.14467133  1
  O  O52  1  0.51586467  0.83109833  0.24370533  1
  O  O53  1  0.68594500  0.16775300  0.25782600  1
  O  O54  1  0.16890167  0.68476633  0.24370533  1
  O  O55  1  0.99904167  0.80316833  0.18981933  1
  O  O56  1  0.83224700  0.51819200  0.25782600  1
  O  O57  1  0.33777333  0.47401767  0.97679167  1
  O  O58  1  0.52598233  0.86375567  0.97679167  1
  O  O59  1  0.13624433  0.66222667  0.97679167  1
  O  O60  1  0.19477400  0.99891400  0.69050900  1
  O  O61  1  0.80414000  0.80522600  0.69050900  1
  O  O62  1  0.00108600  0.19586000  0.69050900  1
  O  O63  1  0.50095033  0.15309267  0.41028667  1
  O  O64  1  0.33164133  0.87139767  0.47800467  1
  O  O65  1  0.16529833  0.98540367  0.42133167  1
  O  O66  1  0.65214233  0.49904967  0.41028667  1
  O  O67  1  0.82010533  0.83470167  0.42133167  1
  O  O68  1  0.86349833  0.52920667  0.52315267  1
  O  O69  1  0.01459633  0.17989467  0.42133167  1
  O  O70  1  0.14847467  0.64738833  0.59115933  1
  O  O71  1  0.47079333  0.33429167  0.52315267  1
  O  O72  1  0.53975633  0.66835867  0.47800467  1
  O  O73  1  0.84690733  0.34785767  0.41028667  1
  O  O74  1  0.98190033  0.81746867  0.57703867  1
  O  O75  1  0.12860233  0.46024367  0.47800467  1
  O  O76  1  0.18253133  0.16443167  0.57703867  1
  O  O77  1  0.35261167  0.50108633  0.59115933  1
  O  O78  1  0.83556833  0.01809967  0.57703867  1
  O  O79  1  0.66570833  0.13650167  0.52315267  1
  O  O80  1  0.49891367  0.85152533  0.59115933  1
  O  O81  1  0.00444000  0.80735100  0.31012500  1
  O  O82  1  0.19264900  0.19708900  0.31012500  1
  O  O83  1  0.80291100  0.99556000  0.31012500  1
  O  O84  1  0.86144067  0.33224733  0.02384233  1
  O  O85  1  0.47080667  0.13855933  0.02384233  1
  O  O86  1  0.66775267  0.52919333  0.02384233  1
  O  O87  1  0.16761700  0.48642600  0.74362000  1
  O  O88  1  0.99830800  0.20473100  0.81133800  1
  O  O89  1  0.83196500  0.31873700  0.75466500  1
  O  O90  1  0.31880900  0.83238300  0.74362000  1
  O  O91  1  0.48677200  0.16803500  0.75466500  1
  O  O92  1  0.53016500  0.86254000  0.85648600  1
  O  O93  1  0.68126300  0.51322800  0.75466500  1
  O  O94  1  0.81514133  0.98072167  0.92449267  1
  O  O95  1  0.13746000  0.66762500  0.85648600  1
  O  O96  1  0.20642300  0.00169200  0.81133800  1
  O  O97  1  0.51357400  0.68119100  0.74362000  1
  O  O98  1  0.64856700  0.15080200  0.91037200  1
  O  O99  1  0.79526900  0.79357700  0.81133800  1
  O  O100  1  0.84919800  0.49776500  0.91037200  1
  O  O101  1  0.01927833  0.83441967  0.92449267  1
  O  O102  1  0.50223500  0.35143300  0.91037200  1
  O  O103  1  0.33237500  0.46983500  0.85648600  1
  O  O104  1  0.16558033  0.18485867  0.92449267  1
  O  O105  1  0.67110667  0.14068433  0.64345833  1
  O  O106  1  0.85931567  0.53042233  0.64345833  1
  O  O107  1  0.46957767  0.32889333  0.64345833  1
