# generated using pymatgen
data_FeNi3Sn2(PO4)6
_symmetry_space_group_name_H-M   'P 1'
_cell_length_a   8.70005156
_cell_length_b   8.70005156
_cell_length_c   20.57784649
_cell_angle_alpha   90.00000000
_cell_angle_beta   90.00000000
_cell_angle_gamma   120.00000000
_symmetry_Int_Tables_number   1
_chemical_formula_structural   FeNi3Sn2(PO4)6
_chemical_formula_sum   'Fe3 Ni9 Sn6 P18 O72'
_cell_volume   1348.88276993
_cell_formula_units_Z   3
loop_
 _symmetry_equiv_pos_site_id
 _symmetry_equiv_pos_as_xyz
  1  'x, y, z'
loop_
 _atom_site_type_symbol
 _atom_site_label
 _atom_site_symmetry_multiplicity
 _atom_site_fract_x
 _atom_site_fract_y
 _atom_site_fract_z
 _atom_site_occupancy
  Fe  Fe0  1  0.33333333  0.66666667  0.51717467  1
  Fe  Fe1  1  0.00000000  0.00000000  0.85050800  1
  Fe  Fe2  1  0.66666667  0.33333333  0.18384133  1
  Ni  Ni3  1  0.33333333  0.66666667  0.81429067  1
  Ni  Ni4  1  0.33333333  0.66666667  0.02002567  1
  Ni  Ni5  1  0.33333333  0.66666667  0.31323067  1
  Ni  Ni6  1  0.00000000  0.00000000  0.14762400  1
  Ni  Ni7  1  0.00000000  0.00000000  0.35335900  1
  Ni  Ni8  1  0.00000000  0.00000000  0.64656400  1
  Ni  Ni9  1  0.66666667  0.33333333  0.48095733  1
  Ni  Ni10  1  0.66666667  0.33333333  0.68669233  1
  Ni  Ni11  1  0.66666667  0.33333333  0.97989733  1
  Sn  Sn12  1  0.33333333  0.66666667  0.66791767  1
  Sn  Sn13  1  0.33333333  0.66666667  0.16698767  1
  Sn  Sn14  1  0.00000000  0.00000000  0.00125100  1
  Sn  Sn15  1  0.00000000  0.00000000  0.50032100  1
  Sn  Sn16  1  0.66666667  0.33333333  0.33458433  1
  Sn  Sn17  1  0.66666667  0.33333333  0.83365433  1
  P  P18  1  0.37025033  0.03670367  0.08258767  1
  P  P19  1  0.66645333  0.62974967  0.08258767  1
  P  P20  1  0.70359300  0.99956600  0.25024100  1
  P  P21  1  0.00043400  0.70402700  0.25024100  1
  P  P22  1  0.29597300  0.29640700  0.25024100  1
  P  P23  1  0.96329633  0.33354667  0.08258767  1
  P  P24  1  0.03691700  0.37003700  0.41592100  1
  P  P25  1  0.33312000  0.96308300  0.41592100  1
  P  P26  1  0.37025967  0.33289933  0.58357433  1
  P  P27  1  0.66710067  0.03736033  0.58357433  1
  P  P28  1  0.96263967  0.62974033  0.58357433  1
  P  P29  1  0.62996300  0.66688000  0.41592100  1
  P  P30  1  0.70358367  0.70337033  0.74925433  1
  P  P31  1  0.99978667  0.29641633  0.74925433  1
  P  P32  1  0.03692633  0.66623267  0.91690767  1
  P  P33  1  0.33376733  0.37069367  0.91690767  1
  P  P34  1  0.62930633  0.96307367  0.91690767  1
  P  P35  1  0.29662967  0.00021333  0.74925433  1
  O  O36  1  0.53377967  0.87624233  0.97896033  1
  O  O37  1  0.12375767  0.65753733  0.97896033  1
  O  O38  1  0.17597533  0.00694567  0.07358867  1
  O  O39  1  0.34246267  0.46622033  0.97896033  1
  O  O40  1  0.46066600  0.14064800  0.14425000  1
  O  O41  1  0.34326800  0.84486200  0.09476500  1
  O  O42  1  0.83097033  0.82402467  0.07358867  1
  O  O43  1  0.50159400  0.65673200  0.09476500  1
  O  O44  1  0.80078667  0.01030933  0.18840333  1
  O  O45  1  0.15513800  0.49840600  0.09476500  1
  O  O46  1  0.67410133  0.16671467  0.25962967  1
  O  O47  1  0.98969067  0.79047733  0.18840333  1
  O  O48  1  0.67998200  0.53933400  0.14425000  1
  O  O49  1  0.99305433  0.16902967  0.07358867  1
  O  O50  1  0.50853833  0.83681667  0.23987167  1
  O  O51  1  0.85935200  0.32001800  0.14425000  1
  O  O52  1  0.16318333  0.67172167  0.23987167  1
  O  O53  1  0.83328533  0.50738667  0.25962967  1
  O  O54  1  0.32827833  0.49146167  0.23987167  1
  O  O55  1  0.20952267  0.19921333  0.18840333  1
  O  O56  1  0.32190000  0.86509500  0.35449300  1
  O  O57  1  0.49261333  0.32589867  0.25962967  1
  O  O58  1  0.54319500  0.67810000  0.35449300  1
  O  O59  1  0.13490500  0.45680500  0.35449300  1
  O  O60  1  0.20044633  0.20957567  0.31229367  1
  O  O61  1  0.79042433  0.99087067  0.31229367  1
  O  O62  1  0.84264200  0.34027900  0.40692200  1
  O  O63  1  0.00912933  0.79955367  0.31229367  1
  O  O64  1  0.12733267  0.47398133  0.47758333  1
  O  O65  1  0.00993467  0.17819533  0.42809833  1
  O  O66  1  0.49763700  0.15735800  0.40692200  1
  O  O67  1  0.16826067  0.99006533  0.42809833  1
  O  O68  1  0.46745333  0.34364267  0.52173667  1
  O  O69  1  0.82180467  0.83173933  0.42809833  1
  O  O70  1  0.34076800  0.50004800  0.59296300  1
  O  O71  1  0.65635733  0.12381067  0.52173667  1
  O  O72  1  0.34664867  0.87266733  0.47758333  1
  O  O73  1  0.65972100  0.50236300  0.40692200  1
  O  O74  1  0.17520500  0.17015000  0.57320500  1
  O  O75  1  0.52601867  0.65335133  0.47758333  1
  O  O76  1  0.82985000  0.00505500  0.57320500  1
  O  O77  1  0.49995200  0.84072000  0.59296300  1
  O  O78  1  0.99494500  0.82479500  0.57320500  1
  O  O79  1  0.87618933  0.53254667  0.52173667  1
  O  O80  1  0.98856667  0.19842833  0.68782633  1
  O  O81  1  0.15928000  0.65923200  0.59296300  1
  O  O82  1  0.20986167  0.01143333  0.68782633  1
  O  O83  1  0.80157167  0.79013833  0.68782633  1
  O  O84  1  0.86711300  0.54290900  0.64562700  1
  O  O85  1  0.45709100  0.32420400  0.64562700  1
  O  O86  1  0.50930867  0.67361233  0.74025533  1
  O  O87  1  0.67579600  0.13288700  0.64562700  1
  O  O88  1  0.79399933  0.80731467  0.81091667  1
  O  O89  1  0.67660133  0.51152867  0.76143167  1
  O  O90  1  0.16430367  0.49069133  0.74025533  1
  O  O91  1  0.83492733  0.32339867  0.76143167  1
  O  O92  1  0.13412000  0.67697600  0.85507000  1
  O  O93  1  0.48847133  0.16507267  0.76143167  1
  O  O94  1  0.00743467  0.83338133  0.92629633  1
  O  O95  1  0.32302400  0.45714400  0.85507000  1
  O  O96  1  0.01331533  0.20600067  0.81091667  1
  O  O97  1  0.32638767  0.83569633  0.74025533  1
  O  O98  1  0.84187167  0.50348333  0.90653833  1
  O  O99  1  0.19268533  0.98668467  0.81091667  1
  O  O100  1  0.49651667  0.33838833  0.90653833  1
  O  O101  1  0.16661867  0.17405333  0.92629633  1
  O  O102  1  0.66161167  0.15812833  0.90653833  1
  O  O103  1  0.54285600  0.86588000  0.85507000  1
  O  O104  1  0.65523333  0.53176167  0.02115967  1
  O  O105  1  0.82594667  0.99256533  0.92629633  1
  O  O106  1  0.87652833  0.34476667  0.02115967  1
  O  O107  1  0.46823833  0.12347167  0.02115967  1
