# generated using pymatgen
data_Na2VO3
_symmetry_space_group_name_H-M   'P 1'
_cell_length_a   5.40418100
_cell_length_b   6.09416900
_cell_length_c   9.37202200
_cell_angle_alpha   90.00000000
_cell_angle_beta   90.00000000
_cell_angle_gamma   90.00000000
_symmetry_Int_Tables_number   1
_chemical_formula_structural   Na2VO3
_chemical_formula_sum   'Na8 V4 O12'
_cell_volume   308.65810058
_cell_formula_units_Z   4
loop_
 _symmetry_equiv_pos_site_id
 _symmetry_equiv_pos_as_xyz
  1  'x, y, z'
loop_
 _atom_site_type_symbol
 _atom_site_label
 _atom_site_symmetry_multiplicity
 _atom_site_fract_x
 _atom_site_fract_y
 _atom_site_fract_z
 _atom_site_occupancy
  Na  Na0  1  0.73489300  0.60446800  0.92076600  1
  Na  Na1  1  0.73489300  0.60446800  0.57923400  1
  Na  Na2  1  0.76510700  0.10446800  0.07923400  1
  Na  Na3  1  0.76510700  0.10446800  0.42076600  1
  Na  Na4  1  0.23489300  0.89553200  0.57923400  1
  Na  Na5  1  0.23489300  0.89553200  0.92076600  1
  Na  Na6  1  0.26510700  0.39553200  0.07923400  1
  Na  Na7  1  0.26510700  0.39553200  0.42076600  1
  V  V8  1  0.77806100  0.14701700  0.75000000  1
  V  V9  1  0.27806100  0.35298300  0.75000000  1
  V  V10  1  0.72193900  0.64701700  0.25000000  1
  V  V11  1  0.22193900  0.85298300  0.25000000  1
  O  O12  1  0.65230300  0.37021800  0.25000000  1
  O  O13  1  0.84769700  0.87021800  0.75000000  1
  O  O14  1  0.15230300  0.12978200  0.25000000  1
  O  O15  1  0.34769700  0.62978200  0.75000000  1
  O  O16  1  0.51124200  0.22194500  0.61443400  1
  O  O17  1  0.51124200  0.22194500  0.88556600  1
  O  O18  1  0.98875800  0.72194500  0.38556600  1
  O  O19  1  0.98875800  0.72194500  0.11443400  1
  O  O20  1  0.01124200  0.27805500  0.61443400  1
  O  O21  1  0.01124200  0.27805500  0.88556600  1
  O  O22  1  0.48875800  0.77805500  0.11443400  1
  O  O23  1  0.48875800  0.77805500  0.38556600  1
