# generated using pymatgen
data_LiMn4(PO4)3
_symmetry_space_group_name_H-M   'P 1'
_cell_length_a   12.20663000
_cell_length_b   13.23896800
_cell_length_c   6.73154113
_cell_angle_alpha   90.00000000
_cell_angle_beta   115.74796716
_cell_angle_gamma   90.00000000
_symmetry_Int_Tables_number   1
_chemical_formula_structural   LiMn4(PO4)3
_chemical_formula_sum   'Li4 Mn16 P12 O48'
_cell_volume   979.83097054
_cell_formula_units_Z   4
loop_
 _symmetry_equiv_pos_site_id
 _symmetry_equiv_pos_as_xyz
  1  'x, y, z'
loop_
 _atom_site_type_symbol
 _atom_site_label
 _atom_site_symmetry_multiplicity
 _atom_site_fract_x
 _atom_site_fract_y
 _atom_site_fract_z
 _atom_site_occupancy
  Li  Li0  1  0.50000000  0.50085500  0.75000000  1
  Li  Li1  1  0.50000000  0.49914500  0.25000000  1
  Li  Li2  1  0.00000000  0.00085500  0.75000000  1
  Li  Li3  1  0.00000000  0.99914500  0.25000000  1
  Mn  Mn4  1  0.21480350  0.84595350  0.62836000  1
  Mn  Mn5  1  0.21480350  0.15404650  0.12836000  1
  Mn  Mn6  1  0.50000000  0.99748600  0.75000000  1
  Mn  Mn7  1  0.50000000  0.23874800  0.75000000  1
  Mn  Mn8  1  0.50000000  0.00251400  0.25000000  1
  Mn  Mn9  1  0.50000000  0.76125200  0.25000000  1
  Mn  Mn10  1  0.78519650  0.84595350  0.87164000  1
  Mn  Mn11  1  0.78519650  0.15404650  0.37164000  1
  Mn  Mn12  1  0.71480350  0.34595350  0.62836000  1
  Mn  Mn13  1  0.71480350  0.65404650  0.12836000  1
  Mn  Mn14  1  0.00000000  0.49748600  0.75000000  1
  Mn  Mn15  1  0.00000000  0.73874800  0.75000000  1
  Mn  Mn16  1  0.00000000  0.50251400  0.25000000  1
  Mn  Mn17  1  0.00000000  0.26125200  0.25000000  1
  Mn  Mn18  1  0.28519650  0.34595350  0.87164000  1
  Mn  Mn19  1  0.28519650  0.65404650  0.37164000  1
  P  P20  1  0.22395850  0.10994450  0.62062500  1
  P  P21  1  0.22395850  0.89005550  0.12062500  1
  P  P22  1  0.50000000  0.78847800  0.75000000  1
  P  P23  1  0.50000000  0.21152200  0.25000000  1
  P  P24  1  0.77604150  0.10994450  0.87937500  1
  P  P25  1  0.77604150  0.89005550  0.37937500  1
  P  P26  1  0.72395850  0.60994450  0.62062500  1
  P  P27  1  0.72395850  0.39005550  0.12062500  1
  P  P28  1  0.00000000  0.28847800  0.75000000  1
  P  P29  1  0.00000000  0.71152200  0.25000000  1
  P  P30  1  0.27604150  0.60994450  0.87937500  1
  P  P31  1  0.27604150  0.39005550  0.37937500  1
  O  O32  1  0.15980800  0.00597600  0.59967200  1
  O  O33  1  0.22004400  0.17485400  0.80695100  1
  O  O34  1  0.15980800  0.99402400  0.09967200  1
  O  O35  1  0.22004400  0.82514600  0.30695100  1
  O  O36  1  0.34381800  0.33685400  0.60783000  1
  O  O37  1  0.40326200  0.86612000  0.75415800  1
  O  O38  1  0.36270100  0.09943500  0.66839700  1
  O  O39  1  0.53971900  0.72335300  0.95969300  1
  O  O40  1  0.46028100  0.72335300  0.54030700  1
  O  O41  1  0.34381800  0.66314600  0.10783000  1
  O  O42  1  0.40326200  0.13388000  0.25415800  1
  O  O43  1  0.36270100  0.90056500  0.16839700  1
  O  O44  1  0.63729900  0.09943500  0.83160300  1
  O  O45  1  0.59673800  0.86612000  0.74584200  1
  O  O46  1  0.65618200  0.33685400  0.89217000  1
  O  O47  1  0.53971900  0.27664700  0.45969300  1
  O  O48  1  0.46028100  0.27664700  0.04030700  1
  O  O49  1  0.63729900  0.90056500  0.33160300  1
  O  O50  1  0.59673800  0.13388000  0.24584200  1
  O  O51  1  0.65618200  0.66314600  0.39217000  1
  O  O52  1  0.77995600  0.17485400  0.69304900  1
  O  O53  1  0.84019200  0.00597600  0.90032800  1
  O  O54  1  0.77995600  0.82514600  0.19304900  1
  O  O55  1  0.84019200  0.99402400  0.40032800  1
  O  O56  1  0.65980800  0.50597600  0.59967200  1
  O  O57  1  0.72004400  0.67485400  0.80695100  1
  O  O58  1  0.65980800  0.49402400  0.09967200  1
  O  O59  1  0.72004400  0.32514600  0.30695100  1
  O  O60  1  0.84381800  0.83685400  0.60783000  1
  O  O61  1  0.90326200  0.36612000  0.75415800  1
  O  O62  1  0.86270100  0.59943500  0.66839700  1
  O  O63  1  0.03971900  0.22335300  0.95969300  1
  O  O64  1  0.96028100  0.22335300  0.54030700  1
  O  O65  1  0.84381800  0.16314600  0.10783000  1
  O  O66  1  0.90326200  0.63388000  0.25415800  1
  O  O67  1  0.86270100  0.40056500  0.16839700  1
  O  O68  1  0.13729900  0.59943500  0.83160300  1
  O  O69  1  0.09673800  0.36612000  0.74584200  1
  O  O70  1  0.15618200  0.83685400  0.89217000  1
  O  O71  1  0.03971900  0.77664700  0.45969300  1
  O  O72  1  0.96028100  0.77664700  0.04030700  1
  O  O73  1  0.13729900  0.40056500  0.33160300  1
  O  O74  1  0.09673800  0.63388000  0.24584200  1
  O  O75  1  0.15618200  0.16314600  0.39217000  1
  O  O76  1  0.27995600  0.67485400  0.69304900  1
  O  O77  1  0.34019200  0.50597600  0.90032800  1
  O  O78  1  0.27995600  0.32514600  0.19304900  1
  O  O79  1  0.34019200  0.49402400  0.40032800  1
