# generated using pymatgen
data_Cu6OF11
_symmetry_space_group_name_H-M   'P 1'
_cell_length_a   3.27692311
_cell_length_b   4.67280825
_cell_length_c   13.80577822
_cell_angle_alpha   88.38342383
_cell_angle_beta   89.21093602
_cell_angle_gamma   83.22994044
_symmetry_Int_Tables_number   1
_chemical_formula_structural   Cu6OF11
_chemical_formula_sum   'Cu6 O1 F11'
_cell_volume   209.83084741
_cell_formula_units_Z   1
loop_
 _symmetry_equiv_pos_site_id
 _symmetry_equiv_pos_as_xyz
  1  'x, y, z'
loop_
 _atom_site_type_symbol
 _atom_site_label
 _atom_site_symmetry_multiplicity
 _atom_site_fract_x
 _atom_site_fract_y
 _atom_site_fract_z
 _atom_site_occupancy
  Cu  Cu0  1  0.99941200  0.00801800  0.99828600  1
  Cu  Cu1  1  0.00045200  0.99771100  0.33374000  1
  Cu  Cu2  1  0.00198400  0.98331700  0.67208400  1
  Cu  Cu3  1  0.50412200  0.49191900  0.50187800  1
  Cu  Cu4  1  0.50019100  0.50191800  0.16588400  1
  Cu  Cu5  1  0.51820100  0.53415100  0.82284200  1
  O  O6  1  0.02207400  0.69728000  0.76691200  1
  F  F7  1  0.02848500  0.69672200  0.43483400  1
  F  F8  1  0.02392900  0.70657300  0.09851100  1
  F  F9  1  0.54767200  0.20302300  0.73501600  1
  F  F10  1  0.53033800  0.20292900  0.40197200  1
  F  F11  1  0.52923400  0.20546200  0.06744900  1
  F  F12  1  0.46007600  0.80235200  0.93126800  1
  F  F13  1  0.45257300  0.78701900  0.60030300  1
  F  F14  1  0.47174100  0.79537000  0.26576900  1
  F  F15  1  0.97621400  0.29873200  0.23331300  1
  F  F16  1  0.96401000  0.30752000  0.89833400  1
  F  F17  1  0.96929200  0.27998400  0.57160300  1
