# generated using pymatgen
data_Mg17Al11Pd
_symmetry_space_group_name_H-M   'P 1'
_cell_length_a   10.49793000
_cell_length_b   14.81666400
_cell_length_c   8.97777015
_cell_angle_alpha   90.00000000
_cell_angle_beta   124.83082765
_cell_angle_gamma   90.00000000
_symmetry_Int_Tables_number   1
_chemical_formula_structural   Mg17Al11Pd
_chemical_formula_sum   'Mg34 Al22 Pd2'
_cell_volume   1146.25744296
_cell_formula_units_Z   2
loop_
 _symmetry_equiv_pos_site_id
 _symmetry_equiv_pos_as_xyz
  1  'x, y, z'
loop_
 _atom_site_type_symbol
 _atom_site_label
 _atom_site_symmetry_multiplicity
 _atom_site_fract_x
 _atom_site_fract_y
 _atom_site_fract_z
 _atom_site_occupancy
  Mg  Mg0  1  0.31520300  0.00000000  0.70928300  1
  Mg  Mg1  1  0.60918700  0.00000000  0.28467000  1
  Mg  Mg2  1  0.99868500  0.00000000  0.65097000  1
  Mg  Mg3  1  0.99813200  0.00000000  0.00381400  1
  Mg  Mg4  1  0.34749500  0.00000000  0.34483000  1
  Mg  Mg5  1  0.54448350  0.13936150  0.00142100  1
  Mg  Mg6  1  0.83976350  0.15518250  0.39107800  1
  Mg  Mg7  1  0.44201450  0.15810750  0.60039600  1
  Mg  Mg8  1  0.82810350  0.16924950  0.00427200  1
  Mg  Mg9  1  0.51581400  0.19864800  0.31586400  1
  Mg  Mg10  1  0.19999800  0.19931700  0.68471400  1
  Mg  Mg11  1  0.19999800  0.80068300  0.68471400  1
  Mg  Mg12  1  0.51581400  0.80135200  0.31586400  1
  Mg  Mg13  1  0.82810350  0.83075050  0.00427200  1
  Mg  Mg14  1  0.44201450  0.84189250  0.60039600  1
  Mg  Mg15  1  0.83976350  0.84481750  0.39107800  1
  Mg  Mg16  1  0.54448350  0.86063850  0.00142100  1
  Mg  Mg17  1  0.81520300  0.50000000  0.70928300  1
  Mg  Mg18  1  0.10918700  0.50000000  0.28467000  1
  Mg  Mg19  1  0.49868500  0.50000000  0.65097000  1
  Mg  Mg20  1  0.49813200  0.50000000  0.00381400  1
  Mg  Mg21  1  0.84749500  0.50000000  0.34483000  1
  Mg  Mg22  1  0.04448350  0.63936150  0.00142100  1
  Mg  Mg23  1  0.33976350  0.65518250  0.39107800  1
  Mg  Mg24  1  0.94201450  0.65810750  0.60039600  1
  Mg  Mg25  1  0.32810350  0.66924950  0.00427200  1
  Mg  Mg26  1  0.01581400  0.69864800  0.31586400  1
  Mg  Mg27  1  0.69999800  0.69931700  0.68471400  1
  Mg  Mg28  1  0.69999800  0.30068300  0.68471400  1
  Mg  Mg29  1  0.01581400  0.30135200  0.31586400  1
  Mg  Mg30  1  0.32810350  0.33075050  0.00427200  1
  Mg  Mg31  1  0.94201450  0.34189250  0.60039600  1
  Mg  Mg32  1  0.33976350  0.34481750  0.39107800  1
  Mg  Mg33  1  0.04448350  0.36063850  0.00142100  1
  Al  Al34  1  0.63808800  0.00000000  0.83155500  1
  Al  Al35  1  0.27588550  0.09054550  0.99871800  1
  Al  Al36  1  0.58506500  0.59076600  0.36197300  1
  Al  Al37  1  0.72531150  0.09188450  0.63511600  1
  Al  Al38  1  0.49760000  0.68235500  0.81593800  1
  Al  Al39  1  0.18420800  0.18261100  0.18809000  1
  Al  Al40  1  0.18420800  0.81738900  0.18809000  1
  Al  Al41  1  0.49760000  0.31764500  0.81593800  1
  Al  Al42  1  0.72531150  0.90811550  0.63511600  1
  Al  Al43  1  0.58506500  0.40923400  0.36197300  1
  Al  Al44  1  0.27588550  0.90945450  0.99871800  1
  Al  Al45  1  0.13808800  0.50000000  0.83155500  1
  Al  Al46  1  0.77588550  0.59054550  0.99871800  1
  Al  Al47  1  0.08506500  0.09076600  0.36197300  1
  Al  Al48  1  0.22531150  0.59188450  0.63511600  1
  Al  Al49  1  0.99760000  0.18235500  0.81593800  1
  Al  Al50  1  0.68420800  0.68261100  0.18809000  1
  Al  Al51  1  0.68420800  0.31738900  0.18809000  1
  Al  Al52  1  0.99760000  0.81764500  0.81593800  1
  Al  Al53  1  0.22531150  0.40811550  0.63511600  1
  Al  Al54  1  0.08506500  0.90923400  0.36197300  1
  Al  Al55  1  0.77588550  0.40945450  0.99871800  1
  Pd  Pd56  1  0.81650200  0.00000000  0.17980500  1
  Pd  Pd57  1  0.31650200  0.50000000  0.17980500  1
