# generated using pymatgen
data_Nb3V(PO4)6
_symmetry_space_group_name_H-M   'P 1'
_cell_length_a   8.79559378
_cell_length_b   8.79559378
_cell_length_c   22.24178894
_cell_angle_alpha   90.00000000
_cell_angle_beta   90.00000000
_cell_angle_gamma   120.00000000
_symmetry_Int_Tables_number   1
_chemical_formula_structural   Nb3V(PO4)6
_chemical_formula_sum   'Nb9 V3 P18 O72'
_cell_volume   1490.15235471
_cell_formula_units_Z   3
loop_
 _symmetry_equiv_pos_site_id
 _symmetry_equiv_pos_as_xyz
  1  'x, y, z'
loop_
 _atom_site_type_symbol
 _atom_site_label
 _atom_site_symmetry_multiplicity
 _atom_site_fract_x
 _atom_site_fract_y
 _atom_site_fract_z
 _atom_site_occupancy
  Nb  Nb0  1  0.66666667  0.33333333  0.19268633  1
  Nb  Nb1  1  0.33333333  0.66666667  0.30820067  1
  Nb  Nb2  1  0.33333333  0.66666667  0.02664867  1
  Nb  Nb3  1  0.33333333  0.66666667  0.52601967  1
  Nb  Nb4  1  0.00000000  0.00000000  0.64153400  1
  Nb  Nb5  1  0.00000000  0.00000000  0.35998200  1
  Nb  Nb6  1  0.00000000  0.00000000  0.85935300  1
  Nb  Nb7  1  0.66666667  0.33333333  0.97486733  1
  Nb  Nb8  1  0.66666667  0.33333333  0.69331533  1
  V  V9  1  0.00000000  0.00000000  0.14221400  1
  V  V10  1  0.66666667  0.33333333  0.47554733  1
  V  V11  1  0.33333333  0.66666667  0.80888067  1
  P  P12  1  0.71846167  0.71919733  0.24871033  1
  P  P13  1  0.28080267  0.99926433  0.24871033  1
  P  P14  1  0.00073567  0.28153833  0.24871033  1
  P  P15  1  0.67259667  0.04906133  0.08394833  1
  P  P16  1  0.37646467  0.32740333  0.08394833  1
  P  P17  1  0.95093867  0.62353533  0.08394833  1
  P  P18  1  0.38512833  0.05253067  0.58204367  1
  P  P19  1  0.94746933  0.33259767  0.58204367  1
  P  P20  1  0.66740233  0.61487167  0.58204367  1
  P  P21  1  0.33926333  0.38239467  0.41728167  1
  P  P22  1  0.04313133  0.66073667  0.41728167  1
  P  P23  1  0.61760533  0.95686867  0.41728167  1
  P  P24  1  0.05179500  0.38586400  0.91537700  1
  P  P25  1  0.61413600  0.66593100  0.91537700  1
  P  P26  1  0.33406900  0.94820500  0.91537700  1
  P  P27  1  0.00593000  0.71572800  0.75061500  1
  P  P28  1  0.70979800  0.99407000  0.75061500  1
  P  P29  1  0.28427200  0.29020200  0.75061500  1
  O  O30  1  0.83927067  0.52796933  0.02767233  1
  O  O31  1  0.68869867  0.16072933  0.02767233  1
  O  O32  1  0.69405867  0.53156733  0.24291933  1
  O  O33  1  0.47203067  0.31130133  0.02767233  1
  O  O34  1  0.53122867  0.69254333  0.25836933  1
  O  O35  1  0.79838567  0.82646033  0.19288333  1
  O  O36  1  0.46843267  0.16249133  0.24291933  1
  O  O37  1  0.30745667  0.83868533  0.25836933  1
  O  O38  1  0.16131467  0.46877133  0.25836933  1
  O  O39  1  0.64009700  0.13642200  0.13942600  1
  O  O40  1  0.83142800  0.02827200  0.08952700  1
  O  O41  1  0.49632500  0.35990300  0.13942600  1
  O  O42  1  0.17353967  0.97192533  0.19288333  1
  O  O43  1  0.83750867  0.30594133  0.24291933  1
  O  O44  1  0.02807467  0.20161433  0.19288333  1
  O  O45  1  0.50300433  0.86619467  0.07592467  1
  O  O46  1  0.36319033  0.49699567  0.07592467  1
  O  O47  1  0.19684400  0.16857200  0.08952700  1
  O  O48  1  0.86357800  0.50367500  0.13942600  1
  O  O49  1  0.13380533  0.63680967  0.07592467  1
  O  O50  1  0.19698767  0.02493633  0.30625833  1
  O  O51  1  0.97172800  0.80315600  0.08952700  1
  O  O52  1  0.97506367  0.17205133  0.30625833  1
  O  O53  1  0.82794867  0.80301233  0.30625833  1
  O  O54  1  0.50593733  0.86130267  0.36100567  1
  O  O55  1  0.35536533  0.49406267  0.36100567  1
  O  O56  1  0.36072533  0.86490067  0.57625267  1
  O  O57  1  0.13869733  0.64463467  0.36100567  1
  O  O58  1  0.19789533  0.02587667  0.59170267  1
  O  O59  1  0.46505233  0.15979367  0.52621667  1
  O  O60  1  0.13509933  0.49582467  0.57625267  1
  O  O61  1  0.97412333  0.17201867  0.59170267  1
  O  O62  1  0.82798133  0.80210467  0.59170267  1
  O  O63  1  0.30676367  0.46975533  0.47275933  1
  O  O64  1  0.49809467  0.36160533  0.42286033  1
  O  O65  1  0.16299167  0.69323633  0.47275933  1
  O  O66  1  0.84020633  0.30525867  0.52621667  1
  O  O67  1  0.50417533  0.63927467  0.57625267  1
  O  O68  1  0.69474133  0.53494767  0.52621667  1
  O  O69  1  0.16967100  0.19952800  0.40925800  1
  O  O70  1  0.02985700  0.83032900  0.40925800  1
  O  O71  1  0.86351067  0.50190533  0.42286033  1
  O  O72  1  0.53024467  0.83700833  0.47275933  1
  O  O73  1  0.80047200  0.97014300  0.40925800  1
  O  O74  1  0.86365433  0.35826967  0.63959167  1
  O  O75  1  0.63839467  0.13648933  0.42286033  1
  O  O76  1  0.64173033  0.50538467  0.63959167  1
  O  O77  1  0.49461533  0.13634567  0.63959167  1
  O  O78  1  0.17260400  0.19463600  0.69433900  1
  O  O79  1  0.02203200  0.82739600  0.69433900  1
  O  O80  1  0.02739200  0.19823400  0.90958600  1
  O  O81  1  0.80536400  0.97796800  0.69433900  1
  O  O82  1  0.86456200  0.35921000  0.92503600  1
  O  O83  1  0.13171900  0.49312700  0.85955000  1
  O  O84  1  0.80176600  0.82915800  0.90958600  1
  O  O85  1  0.64079000  0.50535200  0.92503600  1
  O  O86  1  0.49464800  0.13543800  0.92503600  1
  O  O87  1  0.97343033  0.80308867  0.80609267  1
  O  O88  1  0.16476133  0.69493867  0.75619367  1
  O  O89  1  0.82965833  0.02656967  0.80609267  1
  O  O90  1  0.50687300  0.63859200  0.85955000  1
  O  O91  1  0.17084200  0.97260800  0.90958600  1
  O  O92  1  0.36140800  0.86828100  0.85955000  1
  O  O93  1  0.83633767  0.53286133  0.74259133  1
  O  O94  1  0.69652367  0.16366233  0.74259133  1
  O  O95  1  0.53017733  0.83523867  0.75619367  1
  O  O96  1  0.19691133  0.17034167  0.80609267  1
  O  O97  1  0.46713867  0.30347633  0.74259133  1
  O  O98  1  0.53032100  0.69160300  0.97292500  1
  O  O99  1  0.30506133  0.46982267  0.75619367  1
  O  O100  1  0.30839700  0.83871800  0.97292500  1
  O  O101  1  0.16128200  0.46967900  0.97292500  1
