# generated using pymatgen
data_Li3V2(PO4)3
_symmetry_space_group_name_H-M   'P 1'
_cell_length_a   8.48471591
_cell_length_b   8.48471591
_cell_length_c   22.78698902
_cell_angle_alpha   90.00000000
_cell_angle_beta   90.00000000
_cell_angle_gamma   120.00000000
_symmetry_Int_Tables_number   1
_chemical_formula_structural   Li3V2(PO4)3
_chemical_formula_sum   'Li18 V12 P18 O72'
_cell_volume   1420.66664984
_cell_formula_units_Z   6
loop_
 _symmetry_equiv_pos_site_id
 _symmetry_equiv_pos_as_xyz
  1  'x, y, z'
loop_
 _atom_site_type_symbol
 _atom_site_label
 _atom_site_symmetry_multiplicity
 _atom_site_fract_x
 _atom_site_fract_y
 _atom_site_fract_z
 _atom_site_occupancy
  Li  Li0  1  0.03106000  0.71523500  0.04909700  1
  Li  Li1  1  0.28476500  0.31582500  0.04909700  1
  Li  Li2  1  0.68417500  0.96894000  0.04909700  1
  Li  Li3  1  0.98249167  0.36439333  0.28423633  1
  Li  Li4  1  0.38190167  0.01750833  0.28423633  1
  Li  Li5  1  0.63560667  0.61809833  0.28423633  1
  Li  Li6  1  0.69772667  0.04856833  0.38243033  1
  Li  Li7  1  0.95143167  0.64915833  0.38243033  1
  Li  Li8  1  0.35084167  0.30227333  0.38243033  1
  Li  Li9  1  0.64915833  0.69772667  0.61756967  1
  Li  Li10  1  0.04856833  0.35084167  0.61756967  1
  Li  Li11  1  0.30227333  0.95143167  0.61756967  1
  Li  Li12  1  0.36439333  0.38190167  0.71576367  1
  Li  Li13  1  0.61809833  0.98249167  0.71576367  1
  Li  Li14  1  0.01750833  0.63560667  0.71576367  1
  Li  Li15  1  0.31582500  0.03106000  0.95090300  1
  Li  Li16  1  0.71523500  0.68417500  0.95090300  1
  Li  Li17  1  0.96894000  0.28476500  0.95090300  1
  V  V18  1  0.33333333  0.66666667  0.01704167  1
  V  V19  1  0.66666667  0.33333333  0.18849733  1
  V  V20  1  0.00000000  0.00000000  0.14483600  1
  V  V21  1  0.33333333  0.66666667  0.31629167  1
  V  V22  1  0.00000000  0.00000000  0.35037500  1
  V  V23  1  0.33333333  0.66666667  0.52183067  1
  V  V24  1  0.66666667  0.33333333  0.47816933  1
  V  V25  1  0.00000000  0.00000000  0.64962500  1
  V  V26  1  0.66666667  0.33333333  0.68370833  1
  V  V27  1  0.00000000  0.00000000  0.85516400  1
  V  V28  1  0.33333333  0.66666667  0.81150267  1
  V  V29  1  0.66666667  0.33333333  0.98295833  1
  P  P30  1  0.66925933  0.62491767  0.08320267  1
  P  P31  1  0.95565833  0.33074067  0.08320267  1
  P  P32  1  0.37508233  0.04434167  0.08320267  1
  P  P33  1  0.29158433  0.28899167  0.25013067  1
  P  P34  1  0.71100833  0.00259267  0.25013067  1
  P  P35  1  0.99740733  0.70841567  0.25013067  1
  P  P36  1  0.33592600  0.95825100  0.41653600  1
  P  P37  1  0.62232500  0.66407400  0.41653600  1
  P  P38  1  0.04174900  0.37767500  0.41653600  1
  P  P39  1  0.95825100  0.62232500  0.58346400  1
  P  P40  1  0.37767500  0.33592600  0.58346400  1
  P  P41  1  0.66407400  0.04174900  0.58346400  1
  P  P42  1  0.00259267  0.29158433  0.74986933  1
  P  P43  1  0.28899167  0.99740733  0.74986933  1
  P  P44  1  0.70841567  0.71100833  0.74986933  1
  P  P45  1  0.62491767  0.95565833  0.91679733  1
  P  P46  1  0.04434167  0.66925933  0.91679733  1
  P  P47  1  0.33074067  0.37508233  0.91679733  1
  O  O48  1  0.75932200  0.57422100  0.03071800  1
  O  O49  1  0.47139400  0.57185400  0.06575200  1
  O  O50  1  0.10046000  0.52860600  0.06575200  1
  O  O51  1  0.81489900  0.24067800  0.03071800  1
  O  O52  1  0.42577900  0.18510100  0.03071800  1
  O  O53  1  0.67286200  0.52984500  0.13880200  1
  O  O54  1  0.04902533  0.21423667  0.08933667  1
  O  O55  1  0.85698300  0.32713800  0.13880200  1
  O  O56  1  0.42814600  0.89954000  0.06575200  1
  O  O57  1  0.16521133  0.95097467  0.08933667  1
  O  O58  1  0.47015500  0.14301700  0.13880200  1
  O  O59  1  0.78576333  0.83478867  0.08933667  1
  O  O60  1  0.88090333  0.49854467  0.24399667  1
  O  O61  1  0.19651167  0.19031633  0.19453133  1
  O  O62  1  0.50145533  0.38235867  0.24399667  1
  O  O63  1  0.23852067  0.43379333  0.26758133  1
  O  O64  1  0.80968367  0.00619533  0.19453133  1
  O  O65  1  0.61764133  0.11909667  0.24399667  1
  O  O66  1  0.99380467  0.80348833  0.19453133  1
  O  O67  1  0.24088767  0.14823233  0.30261533  1
  O  O68  1  0.85176767  0.09265533  0.30261533  1
  O  O69  1  0.56620667  0.80472733  0.26758133  1
  O  O70  1  0.19527267  0.76147933  0.26758133  1
  O  O71  1  0.90734467  0.75911233  0.30261533  1
  O  O72  1  0.42598867  0.90755433  0.36405133  1
  O  O73  1  0.13806067  0.90518733  0.39908533  1
  O  O74  1  0.76712667  0.86193933  0.39908533  1
  O  O75  1  0.48156567  0.57401133  0.36405133  1
  O  O76  1  0.09244567  0.51843433  0.36405133  1
  O  O77  1  0.33952867  0.86317833  0.47213533  1
  O  O78  1  0.71569200  0.54757000  0.42267000  1
  O  O79  1  0.52364967  0.66047133  0.47213533  1
  O  O80  1  0.09481267  0.23287333  0.39908533  1
  O  O81  1  0.83187800  0.28430800  0.42267000  1
  O  O82  1  0.13682167  0.47635033  0.47213533  1
  O  O83  1  0.45243000  0.16812200  0.42267000  1
  O  O84  1  0.54757000  0.83187800  0.57733000  1
  O  O85  1  0.86317833  0.52364967  0.52786467  1
  O  O86  1  0.16812200  0.71569200  0.57733000  1
  O  O87  1  0.90518733  0.76712667  0.60091467  1
  O  O88  1  0.47635033  0.33952867  0.52786467  1
  O  O89  1  0.28430800  0.45243000  0.57733000  1
  O  O90  1  0.66047133  0.13682167  0.52786467  1
  O  O91  1  0.90755433  0.48156567  0.63594867  1
  O  O92  1  0.51843433  0.42598867  0.63594867  1
  O  O93  1  0.23287333  0.13806067  0.60091467  1
  O  O94  1  0.86193933  0.09481267  0.60091467  1
  O  O95  1  0.57401133  0.09244567  0.63594867  1
  O  O96  1  0.09265533  0.24088767  0.69738467  1
  O  O97  1  0.80472733  0.23852067  0.73241867  1
  O  O98  1  0.43379333  0.19527267  0.73241867  1
  O  O99  1  0.14823233  0.90734467  0.69738467  1
  O  O100  1  0.75911233  0.85176767  0.69738467  1
  O  O101  1  0.00619533  0.19651167  0.80546867  1
  O  O102  1  0.38235867  0.88090333  0.75600333  1
  O  O103  1  0.19031633  0.99380467  0.80546867  1
  O  O104  1  0.76147933  0.56620667  0.73241867  1
  O  O105  1  0.49854467  0.61764133  0.75600333  1
  O  O106  1  0.80348833  0.80968367  0.80546867  1
  O  O107  1  0.11909667  0.50145533  0.75600333  1
  O  O108  1  0.21423667  0.16521133  0.91066333  1
  O  O109  1  0.52984500  0.85698300  0.86119800  1
  O  O110  1  0.83478867  0.04902533  0.91066333  1
  O  O111  1  0.57185400  0.10046000  0.93424800  1
  O  O112  1  0.14301700  0.67286200  0.86119800  1
  O  O113  1  0.95097467  0.78576333  0.91066333  1
  O  O114  1  0.32713800  0.47015500  0.86119800  1
  O  O115  1  0.57422100  0.81489900  0.96928200  1
  O  O116  1  0.18510100  0.75932200  0.96928200  1
  O  O117  1  0.89954000  0.47139400  0.93424800  1
  O  O118  1  0.52860600  0.42814600  0.93424800  1
  O  O119  1  0.24067800  0.42577900  0.96928200  1
