# generated using pymatgen
data_Fe6OF11
_symmetry_space_group_name_H-M   'P 1'
_cell_length_a   9.43904200
_cell_length_b   6.81117000
_cell_length_c   7.60230663
_cell_angle_alpha   90.00000000
_cell_angle_beta   111.37006720
_cell_angle_gamma   90.00000000
_symmetry_Int_Tables_number   1
_chemical_formula_structural   Fe6OF11
_chemical_formula_sum   'Fe12 O2 F22'
_cell_volume   455.15528092
_cell_formula_units_Z   2
loop_
 _symmetry_equiv_pos_site_id
 _symmetry_equiv_pos_as_xyz
  1  'x, y, z'
loop_
 _atom_site_type_symbol
 _atom_site_label
 _atom_site_symmetry_multiplicity
 _atom_site_fract_x
 _atom_site_fract_y
 _atom_site_fract_z
 _atom_site_occupancy
  Fe  Fe0  1  0.84919400  0.49120900  0.84726900  1
  Fe  Fe1  1  0.16920450  0.49556150  0.66893400  1
  Fe  Fe2  1  0.83079550  0.49556150  0.33106600  1
  Fe  Fe3  1  0.15080600  0.49120900  0.15273100  1
  Fe  Fe4  1  0.00000000  0.99771800  0.50000000  1
  Fe  Fe5  1  0.00000000  0.02116500  0.00000000  1
  Fe  Fe6  1  0.34919400  0.99120900  0.84726900  1
  Fe  Fe7  1  0.66920450  0.99556150  0.66893400  1
  Fe  Fe8  1  0.33079550  0.99556150  0.33106600  1
  Fe  Fe9  1  0.65080600  0.99120900  0.15273100  1
  Fe  Fe10  1  0.50000000  0.49771800  0.50000000  1
  Fe  Fe11  1  0.50000000  0.52116500  0.00000000  1
  O  O12  1  0.00000000  0.30920200  0.00000000  1
  O  O13  1  0.50000000  0.80920200  0.00000000  1
  F  F14  1  0.17622350  0.19249050  0.67486800  1
  F  F15  1  0.82377650  0.19249050  0.32513200  1
  F  F16  1  0.59966350  0.49494350  0.30513200  1
  F  F17  1  0.26244300  0.50106900  0.96917100  1
  F  F18  1  0.93337050  0.50316750  0.63333800  1
  F  F19  1  0.73755700  0.50106900  0.03082900  1
  F  F20  1  0.06662950  0.50316750  0.36666200  1
  F  F21  1  0.40033650  0.49494350  0.69486800  1
  F  F22  1  0.82368300  0.80049000  0.32639600  1
  F  F23  1  0.17631700  0.80049000  0.67360400  1
  F  F24  1  0.00000000  0.71405200  0.00000000  1
  F  F25  1  0.67622350  0.69249050  0.67486800  1
  F  F26  1  0.32377650  0.69249050  0.32513200  1
  F  F27  1  0.09966350  0.99494350  0.30513200  1
  F  F28  1  0.76244300  0.00106900  0.96917100  1
  F  F29  1  0.43337050  0.00316750  0.63333800  1
  F  F30  1  0.23755700  0.00106900  0.03082900  1
  F  F31  1  0.56662950  0.00316750  0.36666200  1
  F  F32  1  0.90033650  0.99494350  0.69486800  1
  F  F33  1  0.32368300  0.30049000  0.32639600  1
  F  F34  1  0.67631700  0.30049000  0.67360400  1
  F  F35  1  0.50000000  0.21405200  0.00000000  1
