# generated using pymatgen
data_Mn6P4H2O17
_symmetry_space_group_name_H-M   'P 1'
_cell_length_a   9.46039400
_cell_length_b   17.69943200
_cell_length_c   8.24873980
_cell_angle_alpha   90.00000000
_cell_angle_beta   92.62169763
_cell_angle_gamma   90.00000000
_symmetry_Int_Tables_number   1
_chemical_formula_structural   Mn6P4H2O17
_chemical_formula_sum   'Mn24 P16 H8 O68'
_cell_volume   1379.75301546
_cell_formula_units_Z   4
loop_
 _symmetry_equiv_pos_site_id
 _symmetry_equiv_pos_as_xyz
  1  'x, y, z'
loop_
 _atom_site_type_symbol
 _atom_site_label
 _atom_site_symmetry_multiplicity
 _atom_site_fract_x
 _atom_site_fract_y
 _atom_site_fract_z
 _atom_site_occupancy
  Mn  Mn0  1  0.26807400  0.91502500  0.42401900  1
  Mn  Mn1  1  0.44190700  0.62726000  0.83634500  1
  Mn  Mn2  1  0.50876650  0.81089850  0.02779000  1
  Mn  Mn3  1  0.54133350  0.70286850  0.37405300  1
  Mn  Mn4  1  0.59035550  0.87981750  0.60071000  1
  Mn  Mn5  1  0.76807400  0.58497500  0.92401900  1
  Mn  Mn6  1  0.79920700  0.91726500  0.95998300  1
  Mn  Mn7  1  0.94190700  0.87274000  0.33634500  1
  Mn  Mn8  1  0.00876650  0.68910150  0.52779000  1
  Mn  Mn9  1  0.04133350  0.79713150  0.87405300  1
  Mn  Mn10  1  0.09035550  0.62018250  0.10071000  1
  Mn  Mn11  1  0.29920700  0.58273500  0.45998300  1
  Mn  Mn12  1  0.76807400  0.41502500  0.42401900  1
  Mn  Mn13  1  0.94190700  0.12726000  0.83634500  1
  Mn  Mn14  1  0.00876650  0.31089850  0.02779000  1
  Mn  Mn15  1  0.04133350  0.20286850  0.37405300  1
  Mn  Mn16  1  0.09035550  0.37981750  0.60071000  1
  Mn  Mn17  1  0.26807400  0.08497500  0.92401900  1
  Mn  Mn18  1  0.29920700  0.41726500  0.95998300  1
  Mn  Mn19  1  0.44190700  0.37274000  0.33634500  1
  Mn  Mn20  1  0.50876650  0.18910150  0.52779000  1
  Mn  Mn21  1  0.54133350  0.29713150  0.87405300  1
  Mn  Mn22  1  0.59035550  0.12018250  0.10071000  1
  Mn  Mn23  1  0.79920700  0.08273500  0.45998300  1
  P  P24  1  0.04791150  0.96824050  0.69028400  1
  P  P25  1  0.32697850  0.76018850  0.67269800  1
  P  P26  1  0.54791150  0.53175950  0.19028400  1
  P  P27  1  0.62195600  0.94945300  0.29114900  1
  P  P28  1  0.72018400  0.74502500  0.72499300  1
  P  P29  1  0.82697850  0.73981150  0.17269800  1
  P  P30  1  0.12195600  0.55054700  0.79114900  1
  P  P31  1  0.22018400  0.75497500  0.22499300  1
  P  P32  1  0.54791150  0.46824050  0.69028400  1
  P  P33  1  0.82697850  0.26018850  0.67269800  1
  P  P34  1  0.04791150  0.03175950  0.19028400  1
  P  P35  1  0.12195600  0.44945300  0.29114900  1
  P  P36  1  0.22018400  0.24502500  0.72499300  1
  P  P37  1  0.32697850  0.23981150  0.17269800  1
  P  P38  1  0.62195600  0.05054700  0.79114900  1
  P  P39  1  0.72018400  0.25497500  0.22499300  1
  H  H40  1  0.29943400  0.91772000  0.88122400  1
  H  H41  1  0.29695300  0.92533900  0.07085700  1
  H  H42  1  0.79695300  0.57466100  0.57085700  1
  H  H43  1  0.79943400  0.58228000  0.38122400  1
  H  H44  1  0.79943400  0.41772000  0.88122400  1
  H  H45  1  0.79695300  0.42533900  0.07085700  1
  H  H46  1  0.29695300  0.07466100  0.57085700  1
  H  H47  1  0.29943400  0.08228000  0.38122400  1
  O  O48  1  0.19822950  0.99569750  0.74884200  1
  O  O49  1  0.32232950  0.89073350  0.98365000  1
  O  O50  1  0.37398400  0.83873200  0.60869900  1
  O  O51  1  0.39241750  0.74628350  0.84671100  1
  O  O52  1  0.38280550  0.69257850  0.57075600  1
  O  O53  1  0.38393250  0.76087050  0.22372600  1
  O  O54  1  0.48152900  0.93281200  0.37511100  1
  O  O55  1  0.48555100  0.58824900  0.31535100  1
  O  O56  1  0.56532850  0.57475450  0.02756500  1
  O  O57  1  0.64637900  0.96436700  0.77270100  1
  O  O58  1  0.62404500  0.91068600  0.12266600  1
  O  O59  1  0.66109800  0.66942600  0.78727000  1
  O  O60  1  0.65699250  0.76385050  0.55232800  1
  O  O61  1  0.67448500  0.81431100  0.82940500  1
  O  O62  1  0.66305350  0.74104550  0.17344300  1
  O  O63  1  0.69822950  0.50430250  0.24884200  1
  O  O64  1  0.74012400  0.91830500  0.41224400  1
  O  O65  1  0.82232950  0.60926650  0.48365000  1
  O  O66  1  0.88393250  0.73912950  0.72372600  1
  O  O67  1  0.87398400  0.66126800  0.10869900  1
  O  O68  1  0.89241750  0.75371650  0.34671100  1
  O  O69  1  0.88280550  0.80742150  0.07075600  1
  O  O70  1  0.94342500  0.96466600  0.16329000  1
  O  O71  1  0.98152900  0.56718800  0.87511100  1
  O  O72  1  0.98555100  0.91175100  0.81535100  1
  O  O73  1  0.06532850  0.92524550  0.52756500  1
  O  O74  1  0.12404500  0.58931400  0.62266600  1
  O  O75  1  0.14637900  0.53563300  0.27270100  1
  O  O76  1  0.16305350  0.75895450  0.67344300  1
  O  O77  1  0.16109800  0.83057400  0.28727000  1
  O  O78  1  0.15699250  0.73614950  0.05232800  1
  O  O79  1  0.17448500  0.68568900  0.32940500  1
  O  O80  1  0.24012400  0.58169500  0.91224400  1
  O  O81  1  0.44342500  0.53533400  0.66329000  1
  O  O82  1  0.69822950  0.49569750  0.74884200  1
  O  O83  1  0.82232950  0.39073350  0.98365000  1
  O  O84  1  0.87398400  0.33873200  0.60869900  1
  O  O85  1  0.89241750  0.24628350  0.84671100  1
  O  O86  1  0.88280550  0.19257850  0.57075600  1
  O  O87  1  0.88393250  0.26087050  0.22372600  1
  O  O88  1  0.98152900  0.43281200  0.37511100  1
  O  O89  1  0.98555100  0.08824900  0.31535100  1
  O  O90  1  0.06532850  0.07475450  0.02756500  1
  O  O91  1  0.14637900  0.46436700  0.77270100  1
  O  O92  1  0.12404500  0.41068600  0.12266600  1
  O  O93  1  0.16109800  0.16942600  0.78727000  1
  O  O94  1  0.15699250  0.26385050  0.55232800  1
  O  O95  1  0.17448500  0.31431100  0.82940500  1
  O  O96  1  0.16305350  0.24104550  0.17344300  1
  O  O97  1  0.19822950  0.00430250  0.24884200  1
  O  O98  1  0.24012400  0.41830500  0.41224400  1
  O  O99  1  0.32232950  0.10926650  0.48365000  1
  O  O100  1  0.38393250  0.23912950  0.72372600  1
  O  O101  1  0.37398400  0.16126800  0.10869900  1
  O  O102  1  0.39241750  0.25371650  0.34671100  1
  O  O103  1  0.38280550  0.30742150  0.07075600  1
  O  O104  1  0.44342500  0.46466600  0.16329000  1
  O  O105  1  0.48152900  0.06718800  0.87511100  1
  O  O106  1  0.48555100  0.41175100  0.81535100  1
  O  O107  1  0.56532850  0.42524550  0.52756500  1
  O  O108  1  0.62404500  0.08931400  0.62266600  1
  O  O109  1  0.64637900  0.03563300  0.27270100  1
  O  O110  1  0.66305350  0.25895450  0.67344300  1
  O  O111  1  0.66109800  0.33057400  0.28727000  1
  O  O112  1  0.65699250  0.23614950  0.05232800  1
  O  O113  1  0.67448500  0.18568900  0.32940500  1
  O  O114  1  0.74012400  0.08169500  0.91224400  1
  O  O115  1  0.94342500  0.03533400  0.66329000  1
