# generated using pymatgen
data_LiNi2P3O10
_symmetry_space_group_name_H-M   'P 1'
_cell_length_a   12.79602800
_cell_length_b   9.20899600
_cell_length_c   8.61978523
_cell_angle_alpha   90.00000000
_cell_angle_beta   121.43416889
_cell_angle_gamma   90.00000000
_symmetry_Int_Tables_number   1
_chemical_formula_structural   LiNi2P3O10
_chemical_formula_sum   'Li4 Ni8 P12 O40'
_cell_volume   866.67263843
_cell_formula_units_Z   4
loop_
 _symmetry_equiv_pos_site_id
 _symmetry_equiv_pos_as_xyz
  1  'x, y, z'
loop_
 _atom_site_type_symbol
 _atom_site_label
 _atom_site_symmetry_multiplicity
 _atom_site_fract_x
 _atom_site_fract_y
 _atom_site_fract_z
 _atom_site_occupancy
  Li  Li0  1  0.00000000  0.63853500  0.75000000  1
  Li  Li1  1  0.00000000  0.36146500  0.25000000  1
  Li  Li2  1  0.50000000  0.13853500  0.75000000  1
  Li  Li3  1  0.50000000  0.86146500  0.25000000  1
  Ni  Ni4  1  0.21566700  0.53935700  0.54526200  1
  Ni  Ni5  1  0.21566700  0.46064300  0.04526200  1
  Ni  Ni6  1  0.78433300  0.53935700  0.95473800  1
  Ni  Ni7  1  0.78433300  0.46064300  0.45473800  1
  Ni  Ni8  1  0.71566700  0.03935700  0.54526200  1
  Ni  Ni9  1  0.71566700  0.96064300  0.04526200  1
  Ni  Ni10  1  0.28433300  0.03935700  0.95473800  1
  Ni  Ni11  1  0.28433300  0.96064300  0.45473800  1
  P  P12  1  0.14520700  0.30153900  0.68906100  1
  P  P13  1  0.14520700  0.69846100  0.18906100  1
  P  P14  1  0.00000000  0.08999700  0.75000000  1
  P  P15  1  0.00000000  0.91000300  0.25000000  1
  P  P16  1  0.85479300  0.30153900  0.81093900  1
  P  P17  1  0.85479300  0.69846100  0.31093900  1
  P  P18  1  0.64520700  0.80153900  0.68906100  1
  P  P19  1  0.64520700  0.19846100  0.18906100  1
  P  P20  1  0.50000000  0.58999700  0.75000000  1
  P  P21  1  0.50000000  0.41000300  0.25000000  1
  P  P22  1  0.35479300  0.80153900  0.81093900  1
  P  P23  1  0.35479300  0.19846100  0.31093900  1
  O  O24  1  0.38734250  0.50296150  0.62428600  1
  O  O25  1  0.38734250  0.49703850  0.12428600  1
  O  O26  1  0.23935800  0.71548000  0.68469600  1
  O  O27  1  0.13189900  0.34657600  0.50739500  1
  O  O28  1  0.13077000  0.43872400  0.77948100  1
  O  O29  1  0.23935800  0.28452000  0.18469600  1
  O  O30  1  0.02594500  0.19807700  0.62674600  1
  O  O31  1  0.13189900  0.65342400  0.00739500  1
  O  O32  1  0.13077000  0.56127600  0.27948100  1
  O  O33  1  0.97405500  0.19807700  0.87325400  1
  O  O34  1  0.02594500  0.80192300  0.12674600  1
  O  O35  1  0.86923000  0.43872400  0.72051900  1
  O  O36  1  0.86810100  0.34657600  0.99260500  1
  O  O37  1  0.97405500  0.80192300  0.37325400  1
  O  O38  1  0.76064200  0.71548000  0.81530400  1
  O  O39  1  0.86923000  0.56127600  0.22051900  1
  O  O40  1  0.86810100  0.65342400  0.49260500  1
  O  O41  1  0.76064200  0.28452000  0.31530400  1
  O  O42  1  0.61265750  0.50296150  0.87571400  1
  O  O43  1  0.61265750  0.49703850  0.37571400  1
  O  O44  1  0.88734250  0.00296150  0.62428600  1
  O  O45  1  0.88734250  0.99703850  0.12428600  1
  O  O46  1  0.73935800  0.21548000  0.68469600  1
  O  O47  1  0.63189900  0.84657600  0.50739500  1
  O  O48  1  0.63077000  0.93872400  0.77948100  1
  O  O49  1  0.73935800  0.78452000  0.18469600  1
  O  O50  1  0.52594500  0.69807700  0.62674600  1
  O  O51  1  0.63189900  0.15342400  0.00739500  1
  O  O52  1  0.63077000  0.06127600  0.27948100  1
  O  O53  1  0.47405500  0.69807700  0.87325400  1
  O  O54  1  0.52594500  0.30192300  0.12674600  1
  O  O55  1  0.36923000  0.93872400  0.72051900  1
  O  O56  1  0.36810100  0.84657600  0.99260500  1
  O  O57  1  0.47405500  0.30192300  0.37325400  1
  O  O58  1  0.26064200  0.21548000  0.81530400  1
  O  O59  1  0.36923000  0.06127600  0.22051900  1
  O  O60  1  0.36810100  0.15342400  0.49260500  1
  O  O61  1  0.26064200  0.78452000  0.31530400  1
  O  O62  1  0.11265750  0.00296150  0.87571400  1
  O  O63  1  0.11265750  0.99703850  0.37571400  1
