# generated using pymatgen
data_U6Co12Ge4C
_symmetry_space_group_name_H-M   'P 1'
_cell_length_a   8.68154200
_cell_length_b   8.68154200
_cell_length_c   8.68154200
_cell_angle_alpha   90.00000000
_cell_angle_beta   90.00000000
_cell_angle_gamma   90.00000000
_symmetry_Int_Tables_number   1
_chemical_formula_structural   U6Co12Ge4C
_chemical_formula_sum   'U12 Co24 Ge8 C2'
_cell_volume   654.32062786
_cell_formula_units_Z   2
loop_
 _symmetry_equiv_pos_site_id
 _symmetry_equiv_pos_as_xyz
  1  'x, y, z'
loop_
 _atom_site_type_symbol
 _atom_site_label
 _atom_site_symmetry_multiplicity
 _atom_site_fract_x
 _atom_site_fract_y
 _atom_site_fract_z
 _atom_site_occupancy
  U  U0  1  0.27926500  0.00000000  0.00000000  1
  U  U1  1  0.72073500  0.00000000  0.00000000  1
  U  U2  1  0.00000000  0.27926500  0.00000000  1
  U  U3  1  0.00000000  0.00000000  0.27926500  1
  U  U4  1  0.00000000  0.72073500  0.00000000  1
  U  U5  1  0.00000000  0.00000000  0.72073500  1
  U  U6  1  0.77926500  0.50000000  0.50000000  1
  U  U7  1  0.22073500  0.50000000  0.50000000  1
  U  U8  1  0.50000000  0.77926500  0.50000000  1
  U  U9  1  0.50000000  0.50000000  0.77926500  1
  U  U10  1  0.50000000  0.22073500  0.50000000  1
  U  U11  1  0.50000000  0.50000000  0.22073500  1
  Co  Co12  1  0.00000000  0.35105600  0.35105600  1
  Co  Co13  1  0.50000000  0.14894400  0.85105600  1
  Co  Co14  1  0.50000000  0.14894400  0.14894400  1
  Co  Co15  1  0.50000000  0.85105600  0.14894400  1
  Co  Co16  1  0.35105600  0.00000000  0.35105600  1
  Co  Co17  1  0.35105600  0.35105600  0.00000000  1
  Co  Co18  1  0.14894400  0.50000000  0.85105600  1
  Co  Co19  1  0.14894400  0.85105600  0.50000000  1
  Co  Co20  1  0.85105600  0.50000000  0.14894400  1
  Co  Co21  1  0.14894400  0.14894400  0.50000000  1
  Co  Co22  1  0.14894400  0.50000000  0.14894400  1
  Co  Co23  1  0.85105600  0.14894400  0.50000000  1
  Co  Co24  1  0.50000000  0.85105600  0.85105600  1
  Co  Co25  1  0.00000000  0.64894400  0.35105600  1
  Co  Co26  1  0.00000000  0.64894400  0.64894400  1
  Co  Co27  1  0.00000000  0.35105600  0.64894400  1
  Co  Co28  1  0.85105600  0.50000000  0.85105600  1
  Co  Co29  1  0.85105600  0.85105600  0.50000000  1
  Co  Co30  1  0.64894400  0.00000000  0.35105600  1
  Co  Co31  1  0.64894400  0.35105600  0.00000000  1
  Co  Co32  1  0.35105600  0.00000000  0.64894400  1
  Co  Co33  1  0.64894400  0.64894400  0.00000000  1
  Co  Co34  1  0.64894400  0.00000000  0.64894400  1
  Co  Co35  1  0.35105600  0.64894400  0.00000000  1
  Ge  Ge36  1  0.25000000  0.25000000  0.25000000  1
  Ge  Ge37  1  0.25000000  0.25000000  0.75000000  1
  Ge  Ge38  1  0.75000000  0.25000000  0.25000000  1
  Ge  Ge39  1  0.25000000  0.75000000  0.25000000  1
  Ge  Ge40  1  0.75000000  0.75000000  0.75000000  1
  Ge  Ge41  1  0.75000000  0.75000000  0.25000000  1
  Ge  Ge42  1  0.25000000  0.75000000  0.75000000  1
  Ge  Ge43  1  0.75000000  0.25000000  0.75000000  1
  C  C44  1  0.00000000  0.00000000  0.00000000  1
  C  C45  1  0.50000000  0.50000000  0.50000000  1
