# generated using pymatgen
data_Li3Mn(NiO3)2
_symmetry_space_group_name_H-M   'P 1'
_cell_length_a   8.93366400
_cell_length_b   5.00746800
_cell_length_c   9.97400618
_cell_angle_alpha   90.00000000
_cell_angle_beta   95.84926575
_cell_angle_gamma   90.00000000
_symmetry_Int_Tables_number   1
_chemical_formula_structural   Li3Mn(NiO3)2
_chemical_formula_sum   'Li12 Mn4 Ni8 O24'
_cell_volume   443.86443304
_cell_formula_units_Z   4
loop_
 _symmetry_equiv_pos_site_id
 _symmetry_equiv_pos_as_xyz
  1  'x, y, z'
loop_
 _atom_site_type_symbol
 _atom_site_label
 _atom_site_symmetry_multiplicity
 _atom_site_fract_x
 _atom_site_fract_y
 _atom_site_fract_z
 _atom_site_occupancy
  Li  Li0  1  0.82760100  0.64129000  0.74466600  1
  Li  Li1  1  0.00000000  0.86542900  0.25000000  1
  Li  Li2  1  0.82760100  0.35871000  0.24466600  1
  Li  Li3  1  0.67239900  0.14129000  0.75533400  1
  Li  Li4  1  0.00000000  0.13457100  0.75000000  1
  Li  Li5  1  0.67239900  0.85871000  0.25533400  1
  Li  Li6  1  0.32760100  0.14129000  0.74466600  1
  Li  Li7  1  0.50000000  0.36542900  0.25000000  1
  Li  Li8  1  0.32760100  0.85871000  0.24466600  1
  Li  Li9  1  0.17239900  0.64129000  0.75533400  1
  Li  Li10  1  0.50000000  0.63457100  0.75000000  1
  Li  Li11  1  0.17239900  0.35871000  0.25533400  1
  Mn  Mn12  1  0.75000000  0.75000000  0.00000000  1
  Mn  Mn13  1  0.75000000  0.25000000  0.50000000  1
  Mn  Mn14  1  0.25000000  0.25000000  0.00000000  1
  Mn  Mn15  1  0.25000000  0.75000000  0.50000000  1
  Ni  Ni16  1  0.91719600  0.74609600  0.49970900  1
  Ni  Ni17  1  0.91719600  0.25390400  0.99970900  1
  Ni  Ni18  1  0.58280400  0.24609600  0.00029100  1
  Ni  Ni19  1  0.58280400  0.75390400  0.50029100  1
  Ni  Ni20  1  0.41719600  0.24609600  0.49970900  1
  Ni  Ni21  1  0.41719600  0.75390400  0.99970900  1
  Ni  Ni22  1  0.08280400  0.74609600  0.00029100  1
  Ni  Ni23  1  0.08280400  0.25390400  0.50029100  1
  O  O24  1  0.90022350  0.90837050  0.89231000  1
  O  O25  1  0.91534750  0.58973050  0.11197300  1
  O  O26  1  0.59977650  0.40837050  0.60769000  1
  O  O27  1  0.91534750  0.41026950  0.61197300  1
  O  O28  1  0.58465250  0.08973050  0.38802700  1
  O  O29  1  0.74251950  0.56758550  0.38948500  1
  O  O30  1  0.90022350  0.09162950  0.39231000  1
  O  O31  1  0.58465250  0.91026950  0.88802700  1
  O  O32  1  0.74251950  0.43241450  0.88948500  1
  O  O33  1  0.59977650  0.59162950  0.10769000  1
  O  O34  1  0.75748050  0.06758550  0.11051500  1
  O  O35  1  0.75748050  0.93241450  0.61051500  1
  O  O36  1  0.40022350  0.40837050  0.89231000  1
  O  O37  1  0.41534750  0.08973050  0.11197300  1
  O  O38  1  0.09977650  0.90837050  0.60769000  1
  O  O39  1  0.41534750  0.91026950  0.61197300  1
  O  O40  1  0.08465250  0.58973050  0.38802700  1
  O  O41  1  0.24251950  0.06758550  0.38948500  1
  O  O42  1  0.40022350  0.59162950  0.39231000  1
  O  O43  1  0.08465250  0.41026950  0.88802700  1
  O  O44  1  0.24251950  0.93241450  0.88948500  1
  O  O45  1  0.09977650  0.09162950  0.10769000  1
  O  O46  1  0.25748050  0.56758550  0.11051500  1
  O  O47  1  0.25748050  0.43241450  0.61051500  1
