# generated using pymatgen
data_Nd5(FeB3)2
_symmetry_space_group_name_H-M   'P 1'
_cell_length_a   5.48637237
_cell_length_b   5.48637237
_cell_length_c   24.40747305
_cell_angle_alpha   90.00000000
_cell_angle_beta   90.00000000
_cell_angle_gamma   120.00000000
_symmetry_Int_Tables_number   1
_chemical_formula_structural   Nd5(FeB3)2
_chemical_formula_sum   'Nd15 Fe6 B18'
_cell_volume   636.24445685
_cell_formula_units_Z   3
loop_
 _symmetry_equiv_pos_site_id
 _symmetry_equiv_pos_as_xyz
  1  'x, y, z'
loop_
 _atom_site_type_symbol
 _atom_site_label
 _atom_site_symmetry_multiplicity
 _atom_site_fract_x
 _atom_site_fract_y
 _atom_site_fract_z
 _atom_site_occupancy
  Nd  Nd0  1  0.33333333  0.66666667  0.08379367  1
  Nd  Nd1  1  0.33333333  0.66666667  0.24953967  1
  Nd  Nd2  1  0.00000000  0.00000000  0.25097400  1
  Nd  Nd3  1  0.66666667  0.33333333  0.08235933  1
  Nd  Nd4  1  0.00000000  0.00000000  0.00000000  1
  Nd  Nd5  1  0.00000000  0.00000000  0.41712700  1
  Nd  Nd6  1  0.00000000  0.00000000  0.58287300  1
  Nd  Nd7  1  0.66666667  0.33333333  0.58430733  1
  Nd  Nd8  1  0.33333333  0.66666667  0.41569267  1
  Nd  Nd9  1  0.66666667  0.33333333  0.33333333  1
  Nd  Nd10  1  0.66666667  0.33333333  0.75046033  1
  Nd  Nd11  1  0.66666667  0.33333333  0.91620633  1
  Nd  Nd12  1  0.33333333  0.66666667  0.91764067  1
  Nd  Nd13  1  0.00000000  0.00000000  0.74902600  1
  Nd  Nd14  1  0.33333333  0.66666667  0.66666667  1
  Fe  Fe15  1  0.00000000  0.00000000  0.12229500  1
  Fe  Fe16  1  0.66666667  0.33333333  0.21103833  1
  Fe  Fe17  1  0.66666667  0.33333333  0.45562833  1
  Fe  Fe18  1  0.33333333  0.66666667  0.54437167  1
  Fe  Fe19  1  0.33333333  0.66666667  0.78896167  1
  Fe  Fe20  1  0.00000000  0.00000000  0.87770500  1
  B  B21  1  0.66668133  0.66666667  0.16666667  1
  B  B22  1  0.99998533  0.33331867  0.16666667  1
  B  B23  1  0.33333333  0.00001467  0.16666667  1
  B  B24  1  0.99998533  0.66666667  0.16666667  1
  B  B25  1  0.66668133  0.00001467  0.16666667  1
  B  B26  1  0.33333333  0.33331867  0.16666667  1
  B  B27  1  0.33334800  0.00000000  0.50000000  1
  B  B28  1  0.66665200  0.66665200  0.50000000  1
  B  B29  1  0.00000000  0.33334800  0.50000000  1
  B  B30  1  0.66665200  0.00000000  0.50000000  1
  B  B31  1  0.33334800  0.33334800  0.50000000  1
  B  B32  1  0.00000000  0.66665200  0.50000000  1
  B  B33  1  0.00001467  0.33333333  0.83333333  1
  B  B34  1  0.33331867  0.99998533  0.83333333  1
  B  B35  1  0.66666667  0.66668133  0.83333333  1
  B  B36  1  0.33331867  0.33333333  0.83333333  1
  B  B37  1  0.00001467  0.66668133  0.83333333  1
  B  B38  1  0.66666667  0.99998533  0.83333333  1
