# generated using pymatgen
data_Mn6O5F7
_symmetry_space_group_name_H-M   'P 1'
_cell_length_a   4.70856629
_cell_length_b   5.71971780
_cell_length_c   15.68255291
_cell_angle_alpha   90.25470323
_cell_angle_beta   90.04775274
_cell_angle_gamma   91.65055630
_symmetry_Int_Tables_number   1
_chemical_formula_structural   Mn6O5F7
_chemical_formula_sum   'Mn12 O10 F14'
_cell_volume   422.17773834
_cell_formula_units_Z   2
loop_
 _symmetry_equiv_pos_site_id
 _symmetry_equiv_pos_as_xyz
  1  'x, y, z'
loop_
 _atom_site_type_symbol
 _atom_site_label
 _atom_site_symmetry_multiplicity
 _atom_site_fract_x
 _atom_site_fract_y
 _atom_site_fract_z
 _atom_site_occupancy
  Mn  Mn0  1  0.01035100  0.83030000  0.58463800  1
  Mn  Mn1  1  0.98347200  0.17459000  0.76292100  1
  Mn  Mn2  1  0.99168300  0.85022600  0.91946200  1
  Mn  Mn3  1  0.05909100  0.83108900  0.24684100  1
  Mn  Mn4  1  0.01455400  0.14194300  0.42060300  1
  Mn  Mn5  1  0.05368100  0.16614900  0.08692300  1
  Mn  Mn6  1  0.45904800  0.67014800  0.41859300  1
  Mn  Mn7  1  0.52421600  0.63546300  0.07764000  1
  Mn  Mn8  1  0.51678000  0.64055600  0.74497500  1
  Mn  Mn9  1  0.49373900  0.35256400  0.91656500  1
  Mn  Mn10  1  0.48729900  0.35072100  0.57859900  1
  Mn  Mn11  1  0.49367000  0.35071600  0.24423300  1
  O  O12  1  0.21302800  0.89451100  0.36602100  1
  O  O13  1  0.20609100  0.11561300  0.86814400  1
  O  O14  1  0.21765100  0.10811900  0.53046600  1
  O  O15  1  0.25501500  0.11592400  0.18883100  1
  O  O16  1  0.26208900  0.60367400  0.52257200  1
  O  O17  1  0.31354800  0.59942200  0.18522500  1
  O  O18  1  0.29883700  0.38516000  0.02495300  1
  O  O19  1  0.72882800  0.61938700  0.96867500  1
  O  O20  1  0.69974400  0.37936700  0.80736300  1
  O  O21  1  0.72274500  0.60551100  0.63399500  1
  F  F22  1  0.21984800  0.89315900  0.70218900  1
  F  F23  1  0.24105600  0.88068100  0.02465800  1
  F  F24  1  0.24414500  0.62255200  0.85094700  1
  F  F25  1  0.24167700  0.38721100  0.68942900  1
  F  F26  1  0.24185100  0.39547300  0.35432500  1
  F  F27  1  0.72831600  0.37985000  0.46189000  1
  F  F28  1  0.78339700  0.38378000  0.14330300  1
  F  F29  1  0.70918900  0.62731400  0.30931300  1
  F  F30  1  0.74538900  0.88588700  0.81427800  1
  F  F31  1  0.75003600  0.88479200  0.47765300  1
  F  F32  1  0.75424900  0.11245200  0.64425700  1
  F  F33  1  0.78701300  0.11969600  0.98747500  1
  F  F34  1  0.79224400  0.87346500  0.13531900  1
  F  F35  1  0.75643200  0.13253700  0.30672400  1
