# generated using pymatgen
data_Ba(WO3)6
_symmetry_space_group_name_H-M   'P 1'
_cell_length_a   20.44318600
_cell_length_b   7.76115800
_cell_length_c   8.98804026
_cell_angle_alpha   90.00000000
_cell_angle_beta   90.01382666
_cell_angle_gamma   90.00000000
_symmetry_Int_Tables_number   1
_chemical_formula_structural   Ba(WO3)6
_chemical_formula_sum   'Ba4 W24 O72'
_cell_volume   1426.06756208
_cell_formula_units_Z   4
loop_
 _symmetry_equiv_pos_site_id
 _symmetry_equiv_pos_as_xyz
  1  'x, y, z'
loop_
 _atom_site_type_symbol
 _atom_site_label
 _atom_site_symmetry_multiplicity
 _atom_site_fract_x
 _atom_site_fract_y
 _atom_site_fract_z
 _atom_site_occupancy
  Ba  Ba0  1  0.62421800  0.50000000  0.08538000  1
  Ba  Ba1  1  0.87578200  0.00000000  0.91462000  1
  Ba  Ba2  1  0.12421800  0.00000000  0.08538000  1
  Ba  Ba3  1  0.37578200  0.50000000  0.91462000  1
  W  W4  1  0.78181300  0.74946800  0.20634700  1
  W  W5  1  0.96811400  0.74725100  0.20656300  1
  W  W6  1  0.78181300  0.25053200  0.20634700  1
  W  W7  1  0.96811400  0.25274900  0.20656300  1
  W  W8  1  0.62507050  0.24826750  0.43297400  1
  W  W9  1  0.62507050  0.75173250  0.43297400  1
  W  W10  1  0.87492950  0.25173250  0.56702600  1
  W  W11  1  0.87492950  0.74826750  0.56702600  1
  W  W12  1  0.53188600  0.24725100  0.79343700  1
  W  W13  1  0.71818700  0.75053200  0.79365300  1
  W  W14  1  0.71818700  0.24946800  0.79365300  1
  W  W15  1  0.53188600  0.75274900  0.79343700  1
  W  W16  1  0.28181300  0.24946800  0.20634700  1
  W  W17  1  0.46811400  0.24725100  0.20656300  1
  W  W18  1  0.28181300  0.75053200  0.20634700  1
  W  W19  1  0.46811400  0.75274900  0.20656300  1
  W  W20  1  0.12507050  0.74826750  0.43297400  1
  W  W21  1  0.12507050  0.25173250  0.43297400  1
  W  W22  1  0.37492950  0.75173250  0.56702600  1
  W  W23  1  0.37492950  0.24826750  0.56702600  1
  W  W24  1  0.03188600  0.74725100  0.79343700  1
  W  W25  1  0.21818700  0.25053200  0.79365300  1
  W  W26  1  0.21818700  0.74946800  0.79365300  1
  W  W27  1  0.03188600  0.25274900  0.79343700  1
  O  O28  1  0.87503350  0.75072050  0.14487200  1
  O  O29  1  0.87503350  0.24927950  0.14487200  1
  O  O30  1  0.78347500  0.00000000  0.19843500  1
  O  O31  1  0.78070000  0.50000000  0.20223800  1
  O  O32  1  0.96848300  0.50000000  0.20386500  1
  O  O33  1  0.96746500  0.00000000  0.19683500  1
  O  O34  1  0.55795850  0.25412350  0.27648900  1
  O  O35  1  0.55795850  0.74587650  0.27648900  1
  O  O36  1  0.69199850  0.74756850  0.27643000  1
  O  O37  1  0.69199850  0.25243150  0.27643000  1
  O  O38  1  0.93913000  0.74953100  0.40945900  1
  O  O39  1  0.62510200  0.50000000  0.42483200  1
  O  O40  1  0.62488100  0.00000000  0.42919700  1
  O  O41  1  0.81089350  0.75023350  0.40951900  1
  O  O42  1  0.81089350  0.24976650  0.40951900  1
  O  O43  1  0.93913000  0.25046900  0.40945900  1
  O  O44  1  0.87511900  0.50000000  0.57080300  1
  O  O45  1  0.87489800  0.00000000  0.57516800  1
  O  O46  1  0.56087000  0.75046900  0.59054100  1
  O  O47  1  0.68910650  0.74976650  0.59048100  1
  O  O48  1  0.56087000  0.24953100  0.59054100  1
  O  O49  1  0.68910650  0.25023350  0.59048100  1
  O  O50  1  0.80800150  0.75243150  0.72357000  1
  O  O51  1  0.94204150  0.75412350  0.72351100  1
  O  O52  1  0.80800150  0.24756850  0.72357000  1
  O  O53  1  0.94204150  0.24587650  0.72351100  1
  O  O54  1  0.71930000  0.00000000  0.79776200  1
  O  O55  1  0.53253500  0.50000000  0.80316500  1
  O  O56  1  0.53151700  0.00000000  0.79613500  1
  O  O57  1  0.71652500  0.50000000  0.80156500  1
  O  O58  1  0.62496650  0.25072050  0.85512800  1
  O  O59  1  0.62496650  0.74927950  0.85512800  1
  O  O60  1  0.75000000  0.75000000  0.00000000  1
  O  O61  1  0.00000000  0.24645800  0.00000000  1
  O  O62  1  0.75000000  0.25000000  0.00000000  1
  O  O63  1  0.00000000  0.75354200  0.00000000  1
  O  O64  1  0.37503350  0.25072050  0.14487200  1
  O  O65  1  0.37503350  0.74927950  0.14487200  1
  O  O66  1  0.28347500  0.50000000  0.19843500  1
  O  O67  1  0.28070000  0.00000000  0.20223800  1
  O  O68  1  0.46848300  0.00000000  0.20386500  1
  O  O69  1  0.46746500  0.50000000  0.19683500  1
  O  O70  1  0.05795850  0.75412350  0.27648900  1
  O  O71  1  0.05795850  0.24587650  0.27648900  1
  O  O72  1  0.19199850  0.24756850  0.27643000  1
  O  O73  1  0.19199850  0.75243150  0.27643000  1
  O  O74  1  0.43913000  0.24953100  0.40945900  1
  O  O75  1  0.12510200  0.00000000  0.42483200  1
  O  O76  1  0.12488100  0.50000000  0.42919700  1
  O  O77  1  0.31089350  0.25023350  0.40951900  1
  O  O78  1  0.31089350  0.74976650  0.40951900  1
  O  O79  1  0.43913000  0.75046900  0.40945900  1
  O  O80  1  0.37511900  0.00000000  0.57080300  1
  O  O81  1  0.37489800  0.50000000  0.57516800  1
  O  O82  1  0.06087000  0.25046900  0.59054100  1
  O  O83  1  0.18910650  0.24976650  0.59048100  1
  O  O84  1  0.06087000  0.74953100  0.59054100  1
  O  O85  1  0.18910650  0.75023350  0.59048100  1
  O  O86  1  0.30800150  0.25243150  0.72357000  1
  O  O87  1  0.44204150  0.25412350  0.72351100  1
  O  O88  1  0.30800150  0.74756850  0.72357000  1
  O  O89  1  0.44204150  0.74587650  0.72351100  1
  O  O90  1  0.21930000  0.50000000  0.79776200  1
  O  O91  1  0.03253500  0.00000000  0.80316500  1
  O  O92  1  0.03151700  0.50000000  0.79613500  1
  O  O93  1  0.21652500  0.00000000  0.80156500  1
  O  O94  1  0.12496650  0.75072050  0.85512800  1
  O  O95  1  0.12496650  0.24927950  0.85512800  1
  O  O96  1  0.25000000  0.25000000  0.00000000  1
  O  O97  1  0.50000000  0.74645800  0.00000000  1
  O  O98  1  0.25000000  0.75000000  0.00000000  1
  O  O99  1  0.50000000  0.25354200  0.00000000  1
