# generated using pymatgen
data_Mn3VNi2(PO4)6
_symmetry_space_group_name_H-M   'P 1'
_cell_length_a   8.58563205
_cell_length_b   8.58563205
_cell_length_c   20.60531406
_cell_angle_alpha   90.00000000
_cell_angle_beta   90.00000000
_cell_angle_gamma   120.00000000
_symmetry_Int_Tables_number   1
_chemical_formula_structural   Mn3VNi2(PO4)6
_chemical_formula_sum   'Mn9 V3 Ni6 P18 O72'
_cell_volume   1315.38963157
_cell_formula_units_Z   3
loop_
 _symmetry_equiv_pos_site_id
 _symmetry_equiv_pos_as_xyz
  1  'x, y, z'
loop_
 _atom_site_type_symbol
 _atom_site_label
 _atom_site_symmetry_multiplicity
 _atom_site_fract_x
 _atom_site_fract_y
 _atom_site_fract_z
 _atom_site_occupancy
  Mn  Mn0  1  0.33333333  0.66666667  0.02481000  1
  Mn  Mn1  1  0.33333333  0.66666667  0.80919133  1
  Mn  Mn2  1  0.33333333  0.66666667  0.30901600  1
  Mn  Mn3  1  0.00000000  0.00000000  0.35814333  1
  Mn  Mn4  1  0.00000000  0.00000000  0.14252467  1
  Mn  Mn5  1  0.00000000  0.00000000  0.64234933  1
  Mn  Mn6  1  0.66666667  0.33333333  0.69147667  1
  Mn  Mn7  1  0.66666667  0.33333333  0.47585800  1
  Mn  Mn8  1  0.66666667  0.33333333  0.97568267  1
  V  V9  1  0.33333333  0.66666667  0.52437367  1
  V  V10  1  0.00000000  0.00000000  0.85770700  1
  V  V11  1  0.66666667  0.33333333  0.19104033  1
  Ni  Ni12  1  0.33333333  0.66666667  0.66670700  1
  Ni  Ni13  1  0.33333333  0.66666667  0.16727767  1
  Ni  Ni14  1  0.00000000  0.00000000  0.00004033  1
  Ni  Ni15  1  0.00000000  0.00000000  0.50061100  1
  Ni  Ni16  1  0.66666667  0.33333333  0.33337367  1
  Ni  Ni17  1  0.66666667  0.33333333  0.83394433  1
  P  P18  1  0.66756867  0.04016233  0.08334533  1
  P  P19  1  0.95983767  0.62740633  0.08334533  1
  P  P20  1  0.37259367  0.33243133  0.08334533  1
  P  P21  1  0.29207900  0.99890300  0.24993600  1
  P  P22  1  0.70682400  0.70792100  0.24993600  1
  P  P23  1  0.00109700  0.29317600  0.24993600  1
  P  P24  1  0.33423533  0.37349567  0.41667867  1
  P  P25  1  0.62650433  0.96073967  0.41667867  1
  P  P26  1  0.03926033  0.66576467  0.41667867  1
  P  P27  1  0.95874567  0.33223633  0.58326933  1
  P  P28  1  0.37349067  0.04125433  0.58326933  1
  P  P29  1  0.66776367  0.62650933  0.58326933  1
  P  P30  1  0.00090200  0.70682900  0.75001200  1
  P  P31  1  0.29317100  0.29407300  0.75001200  1
  P  P32  1  0.70592700  0.99909800  0.75001200  1
  P  P33  1  0.62541233  0.66556967  0.91660267  1
  P  P34  1  0.04015733  0.37458767  0.91660267  1
  P  P35  1  0.33443033  0.95984267  0.91660267  1
  O  O36  1  0.53079233  0.86624467  0.35427667  1
  O  O37  1  0.13375533  0.66454767  0.35427667  1
  O  O38  1  0.33545233  0.46920767  0.35427667  1
  O  O39  1  0.83728000  0.01863900  0.07620000  1
  O  O40  1  0.34116233  0.47963867  0.47804267  1
  O  O41  1  0.49730267  0.85240133  0.09331233  1
  O  O42  1  0.98136100  0.81864100  0.07620000  1
  O  O43  1  0.14759867  0.64490133  0.09331233  1
  O  O44  1  0.19514900  0.99796100  0.18764200  1
  O  O45  1  0.35509867  0.50269733  0.09331233  1
  O  O46  1  0.48606967  0.16941033  0.25569733  1
  O  O47  1  0.80281200  0.80485100  0.18764200  1
  O  O48  1  0.52036133  0.86152367  0.47804267  1
  O  O49  1  0.18135900  0.16272000  0.07620000  1
  O  O50  1  0.31692967  0.83163433  0.24189333  1
  O  O51  1  0.13847633  0.65883767  0.47804267  1
  O  O52  1  0.51470467  0.68307033  0.24189333  1
  O  O53  1  0.68334067  0.51393033  0.25569733  1
  O  O54  1  0.16836567  0.48529533  0.24189333  1
  O  O55  1  0.00203900  0.19718800  0.18764200  1
  O  O56  1  0.83058967  0.31665933  0.25569733  1
  O  O57  1  0.33222700  0.86513300  0.97920400  1
  O  O58  1  0.53290600  0.66777300  0.97920400  1
  O  O59  1  0.13486700  0.46709400  0.97920400  1
  O  O60  1  0.19745900  0.19957800  0.68761000  1
  O  O61  1  0.80042200  0.99788100  0.68761000  1
  O  O62  1  0.00211900  0.80254100  0.68761000  1
  O  O63  1  0.50394667  0.35197233  0.40953333  1
  O  O64  1  0.00782900  0.81297200  0.81137600  1
  O  O65  1  0.16396933  0.18573467  0.42664567  1
  O  O66  1  0.64802767  0.15197433  0.40953333  1
  O  O67  1  0.81426533  0.97823467  0.42664567  1
  O  O68  1  0.86181567  0.33129433  0.52097533  1
  O  O69  1  0.02176533  0.83603067  0.42664567  1
  O  O70  1  0.15273633  0.50274367  0.58903067  1
  O  O71  1  0.46947867  0.13818433  0.52097533  1
  O  O72  1  0.18702800  0.19485700  0.81137600  1
  O  O73  1  0.84802567  0.49605333  0.40953333  1
  O  O74  1  0.98359633  0.16496767  0.57522667  1
  O  O75  1  0.80514300  0.99217100  0.81137600  1
  O  O76  1  0.18137133  0.01640367  0.57522667  1
  O  O77  1  0.35000733  0.84726367  0.58903067  1
  O  O78  1  0.83503233  0.81862867  0.57522667  1
  O  O79  1  0.66870567  0.53052133  0.52097533  1
  O  O80  1  0.49725633  0.64999267  0.58903067  1
  O  O81  1  0.99889367  0.19846633  0.31253733  1
  O  O82  1  0.19957267  0.00110633  0.31253733  1
  O  O83  1  0.80153367  0.80042733  0.31253733  1
  O  O84  1  0.86412567  0.53291133  0.02094333  1
  O  O85  1  0.46708867  0.33121433  0.02094333  1
  O  O86  1  0.66878567  0.13587433  0.02094333  1
  O  O87  1  0.17061333  0.68530567  0.74286667  1
  O  O88  1  0.67449567  0.14630533  0.14470933  1
  O  O89  1  0.83063600  0.51906800  0.75997900  1
  O  O90  1  0.31469433  0.48530767  0.74286667  1
  O  O91  1  0.48093200  0.31156800  0.75997900  1
  O  O92  1  0.52848233  0.66462767  0.85430867  1
  O  O93  1  0.68843200  0.16936400  0.75997900  1
  O  O94  1  0.81940300  0.83607700  0.92236400  1
  O  O95  1  0.13614533  0.47151767  0.85430867  1
  O  O96  1  0.85369467  0.52819033  0.14470933  1
  O  O97  1  0.51469233  0.82938667  0.74286667  1
  O  O98  1  0.65026300  0.49830100  0.90856000  1
  O  O99  1  0.47180967  0.32550433  0.14470933  1
  O  O100  1  0.84803800  0.34973700  0.90856000  1
  O  O101  1  0.01667400  0.18059700  0.92236400  1
  O  O102  1  0.50169900  0.15196200  0.90856000  1
  O  O103  1  0.33537233  0.86385467  0.85430867  1
  O  O104  1  0.16392300  0.98332600  0.92236400  1
  O  O105  1  0.66556033  0.53179967  0.64587067  1
  O  O106  1  0.86623933  0.33443967  0.64587067  1
  O  O107  1  0.46820033  0.13376067  0.64587067  1
