# generated using pymatgen
data_V4(OF3)3
_symmetry_space_group_name_H-M   'P 1'
_cell_length_a   5.20746599
_cell_length_b   5.40855734
_cell_length_c   9.18582635
_cell_angle_alpha   106.97245531
_cell_angle_beta   89.66658841
_cell_angle_gamma   118.54672873
_symmetry_Int_Tables_number   1
_chemical_formula_structural   V4(OF3)3
_chemical_formula_sum   'V4 O3 F9'
_cell_volume   214.59726811
_cell_formula_units_Z   1
loop_
 _symmetry_equiv_pos_site_id
 _symmetry_equiv_pos_as_xyz
  1  'x, y, z'
loop_
 _atom_site_type_symbol
 _atom_site_label
 _atom_site_symmetry_multiplicity
 _atom_site_fract_x
 _atom_site_fract_y
 _atom_site_fract_z
 _atom_site_occupancy
  V  V0  1  0.74919433  0.25014528  0.25024792  1
  V  V1  1  0.52195324  0.48789681  0.49901355  1
  V  V2  1  0.21733541  0.73606133  0.74493899  1
  V  V3  1  0.97837790  0.01263807  0.00288248  1
  O  O4  1  0.84163770  0.15708633  0.08072834  1
  O  O5  1  0.85512268  0.58959223  0.66879968  1
  O  O6  1  0.65594806  0.34153072  0.41857012  1
  F  F7  1  0.32692099  0.07004999  0.16958150  1
  F  F8  1  0.34788134  0.67316069  0.58256427  1
  F  F9  1  0.77739557  0.61921262  0.11956616  1
  F  F10  1  0.72000193  0.87991223  0.37786177  1
  F  F11  1  0.16992032  0.42947555  0.33169388  1
  F  F12  1  0.16937086  0.83313077  0.92164269  1
  F  F13  1  0.28612617  0.12988569  0.63096126  1
  F  F14  1  0.22255382  0.37492290  0.87496294  1
  F  F15  1  0.66026065  0.91529878  0.82598445  1
