# generated using pymatgen
data_HoAl3
_symmetry_space_group_name_H-M   'P 1'
_cell_length_a   6.08034785
_cell_length_b   6.08034785
_cell_length_c   35.97841948
_cell_angle_alpha   90.00000000
_cell_angle_beta   90.00000000
_cell_angle_gamma   120.00000000
_symmetry_Int_Tables_number   1
_chemical_formula_structural   HoAl3
_chemical_formula_sum   'Ho15 Al45'
_cell_volume   1151.93921728
_cell_formula_units_Z   15
loop_
 _symmetry_equiv_pos_site_id
 _symmetry_equiv_pos_as_xyz
  1  'x, y, z'
loop_
 _atom_site_type_symbol
 _atom_site_label
 _atom_site_symmetry_multiplicity
 _atom_site_fract_x
 _atom_site_fract_y
 _atom_site_fract_z
 _atom_site_occupancy
  Ho  Ho0  1  0.33333333  0.66666667  0.26660667  1
  Ho  Ho1  1  0.33333333  0.66666667  0.06672667  1
  Ho  Ho2  1  0.66666667  0.33333333  0.20234733  1
  Ho  Ho3  1  0.00000000  0.00000000  0.13098600  1
  Ho  Ho4  1  0.00000000  0.00000000  0.00000000  1
  Ho  Ho5  1  0.00000000  0.00000000  0.59994000  1
  Ho  Ho6  1  0.00000000  0.00000000  0.40006000  1
  Ho  Ho7  1  0.33333333  0.66666667  0.53568067  1
  Ho  Ho8  1  0.66666667  0.33333333  0.46431933  1
  Ho  Ho9  1  0.66666667  0.33333333  0.33333333  1
  Ho  Ho10  1  0.66666667  0.33333333  0.93327333  1
  Ho  Ho11  1  0.66666667  0.33333333  0.73339333  1
  Ho  Ho12  1  0.00000000  0.00000000  0.86901400  1
  Ho  Ho13  1  0.33333333  0.66666667  0.79765267  1
  Ho  Ho14  1  0.33333333  0.66666667  0.66666667  1
  Al  Al15  1  0.85030967  0.70061933  0.26710433  1
  Al  Al16  1  0.29938067  0.14969033  0.26710433  1
  Al  Al17  1  0.85030967  0.14969033  0.26710433  1
  Al  Al18  1  0.81635700  0.63271400  0.06622900  1
  Al  Al19  1  0.36728600  0.18364300  0.06622900  1
  Al  Al20  1  0.50000000  0.50000000  0.00000000  1
  Al  Al21  1  0.00000000  0.50000000  0.00000000  1
  Al  Al22  1  0.50000000  0.00000000  0.00000000  1
  Al  Al23  1  0.50143600  0.49856400  0.13379200  1
  Al  Al24  1  0.99712800  0.49856400  0.13379200  1
  Al  Al25  1  0.50143600  0.00287200  0.13379200  1
  Al  Al26  1  0.16523067  0.83476933  0.19954133  1
  Al  Al27  1  0.66953867  0.83476933  0.19954133  1
  Al  Al28  1  0.16523067  0.33046133  0.19954133  1
  Al  Al29  1  0.81635700  0.18364300  0.06622900  1
  Al  Al30  1  0.51697633  0.03395267  0.60043767  1
  Al  Al31  1  0.96604733  0.48302367  0.60043767  1
  Al  Al32  1  0.51697633  0.48302367  0.60043767  1
  Al  Al33  1  0.48302367  0.96604733  0.39956233  1
  Al  Al34  1  0.03395267  0.51697633  0.39956233  1
  Al  Al35  1  0.16666667  0.83333333  0.33333333  1
  Al  Al36  1  0.66666667  0.83333333  0.33333333  1
  Al  Al37  1  0.16666667  0.33333333  0.33333333  1
  Al  Al38  1  0.16810267  0.83189733  0.46712533  1
  Al  Al39  1  0.66379467  0.83189733  0.46712533  1
  Al  Al40  1  0.16810267  0.33620533  0.46712533  1
  Al  Al41  1  0.83189733  0.16810267  0.53287467  1
  Al  Al42  1  0.33620533  0.16810267  0.53287467  1
  Al  Al43  1  0.83189733  0.66379467  0.53287467  1
  Al  Al44  1  0.48302367  0.51697633  0.39956233  1
  Al  Al45  1  0.18364300  0.36728600  0.93377100  1
  Al  Al46  1  0.63271400  0.81635700  0.93377100  1
  Al  Al47  1  0.18364300  0.81635700  0.93377100  1
  Al  Al48  1  0.14969033  0.29938067  0.73289567  1
  Al  Al49  1  0.70061933  0.85030967  0.73289567  1
  Al  Al50  1  0.83333333  0.16666667  0.66666667  1
  Al  Al51  1  0.33333333  0.16666667  0.66666667  1
  Al  Al52  1  0.83333333  0.66666667  0.66666667  1
  Al  Al53  1  0.83476933  0.16523067  0.80045867  1
  Al  Al54  1  0.33046133  0.16523067  0.80045867  1
  Al  Al55  1  0.83476933  0.66953867  0.80045867  1
  Al  Al56  1  0.49856400  0.50143600  0.86620800  1
  Al  Al57  1  0.00287200  0.50143600  0.86620800  1
  Al  Al58  1  0.49856400  0.99712800  0.86620800  1
  Al  Al59  1  0.14969033  0.85030967  0.73289567  1
