# generated using pymatgen
data_Li3Cr3FeO8
_symmetry_space_group_name_H-M   'P 1'
_cell_length_a   5.90185388
_cell_length_b   5.90185388
_cell_length_c   14.50346907
_cell_angle_alpha   90.00000000
_cell_angle_beta   90.00000000
_cell_angle_gamma   120.00000000
_symmetry_Int_Tables_number   1
_chemical_formula_structural   Li3Cr3FeO8
_chemical_formula_sum   'Li9 Cr9 Fe3 O24'
_cell_volume   437.50138342
_cell_formula_units_Z   3
loop_
 _symmetry_equiv_pos_site_id
 _symmetry_equiv_pos_as_xyz
  1  'x, y, z'
loop_
 _atom_site_type_symbol
 _atom_site_label
 _atom_site_symmetry_multiplicity
 _atom_site_fract_x
 _atom_site_fract_y
 _atom_site_fract_z
 _atom_site_occupancy
  Li  Li0  1  0.83333333  0.16666667  0.16666667  1
  Li  Li1  1  0.33333333  0.16666667  0.16666667  1
  Li  Li2  1  0.83333333  0.66666667  0.16666667  1
  Li  Li3  1  0.50000000  0.50000000  0.50000000  1
  Li  Li4  1  0.00000000  0.50000000  0.50000000  1
  Li  Li5  1  0.50000000  0.00000000  0.50000000  1
  Li  Li6  1  0.16666667  0.83333333  0.83333333  1
  Li  Li7  1  0.66666667  0.83333333  0.83333333  1
  Li  Li8  1  0.16666667  0.33333333  0.83333333  1
  Cr  Cr9  1  0.50000000  0.50000000  0.00000000  1
  Cr  Cr10  1  0.16666667  0.33333333  0.33333333  1
  Cr  Cr11  1  0.00000000  0.50000000  0.00000000  1
  Cr  Cr12  1  0.16666667  0.83333333  0.33333333  1
  Cr  Cr13  1  0.83333333  0.66666667  0.66666667  1
  Cr  Cr14  1  0.66666667  0.83333333  0.33333333  1
  Cr  Cr15  1  0.83333333  0.16666667  0.66666667  1
  Cr  Cr16  1  0.50000000  0.00000000  0.00000000  1
  Cr  Cr17  1  0.33333333  0.16666667  0.66666667  1
  Fe  Fe18  1  0.33333333  0.66666667  0.16666667  1
  Fe  Fe19  1  1.00000000  1.00000000  0.50000000  1
  Fe  Fe20  1  0.66666667  0.33333333  0.83333333  1
  O  O21  1  0.00000000  0.00000000  0.25797933  1
  O  O22  1  0.66666667  0.33333333  0.07535400  1
  O  O23  1  0.18476383  0.81523617  0.08482967  1
  O  O24  1  0.63047233  0.81523617  0.08482967  1
  O  O25  1  0.18476383  0.36952767  0.08482967  1
  O  O26  1  0.48190283  0.96380567  0.24850367  1
  O  O27  1  0.03619433  0.51809717  0.24850367  1
  O  O28  1  0.48190283  0.51809717  0.24850367  1
  O  O29  1  0.66666667  0.33333333  0.59131267  1
  O  O30  1  0.33333333  0.66666667  0.40868733  1
  O  O31  1  0.85143050  0.14856950  0.41816300  1
  O  O32  1  0.29713900  0.14856950  0.41816300  1
  O  O33  1  0.85143050  0.70286100  0.41816300  1
  O  O34  1  0.14856950  0.29713900  0.58183700  1
  O  O35  1  0.70286100  0.85143050  0.58183700  1
  O  O36  1  0.14856950  0.85143050  0.58183700  1
  O  O37  1  0.33333333  0.66666667  0.92464600  1
  O  O38  1  0.00000000  0.00000000  0.74202067  1
  O  O39  1  0.51809717  0.48190283  0.75149633  1
  O  O40  1  0.96380567  0.48190283  0.75149633  1
  O  O41  1  0.51809717  0.03619433  0.75149633  1
  O  O42  1  0.81523617  0.63047233  0.91517033  1
  O  O43  1  0.36952767  0.18476383  0.91517033  1
  O  O44  1  0.81523617  0.18476383  0.91517033  1
