# generated using pymatgen
data_LiMnPO4
_symmetry_space_group_name_H-M   'P 1'
_cell_length_a   6.01153559
_cell_length_b   6.68019437
_cell_length_c   9.63460421
_cell_angle_alpha   72.92712657
_cell_angle_beta   82.39958268
_cell_angle_gamma   78.84244199
_symmetry_Int_Tables_number   1
_chemical_formula_structural   LiMnPO4
_chemical_formula_sum   'Li4 Mn4 P4 O16'
_cell_volume   361.69137997
_cell_formula_units_Z   4
loop_
 _symmetry_equiv_pos_site_id
 _symmetry_equiv_pos_as_xyz
  1  'x, y, z'
loop_
 _atom_site_type_symbol
 _atom_site_label
 _atom_site_symmetry_multiplicity
 _atom_site_fract_x
 _atom_site_fract_y
 _atom_site_fract_z
 _atom_site_occupancy
  Li  Li0  1  0.59790200  0.80522200  0.71922700  1
  Li  Li1  1  0.40209800  0.19477800  0.28077300  1
  Li  Li2  1  0.43167100  0.66172100  0.32051700  1
  Li  Li3  1  0.56832900  0.33827900  0.67948300  1
  Mn  Mn4  1  0.01353200  0.06642400  0.71711600  1
  Mn  Mn5  1  0.79506700  0.64560700  0.07011700  1
  Mn  Mn6  1  0.98646800  0.93357600  0.28288400  1
  Mn  Mn7  1  0.20493300  0.35439300  0.92988300  1
  P  P8  1  0.16341700  0.70748100  0.61287700  1
  P  P9  1  0.83658300  0.29251900  0.38712300  1
  P  P10  1  0.28896700  0.81655300  0.98793000  1
  P  P11  1  0.71103300  0.18344700  0.01207000  1
  O  O12  1  0.53341200  0.73728200  0.93096700  1
  O  O13  1  0.46658800  0.26271800  0.06903300  1
  O  O14  1  0.31015600  0.86507100  0.63183800  1
  O  O15  1  0.68984400  0.13492900  0.36816200  1
  O  O16  1  0.91734600  0.78278800  0.67113700  1
  O  O17  1  0.08265400  0.21721200  0.32886300  1
  O  O18  1  0.79025300  0.95348800  0.10897100  1
  O  O19  1  0.20974700  0.04651200  0.89102900  1
  O  O20  1  0.12709200  0.67009000  0.97034500  1
  O  O21  1  0.87290800  0.32991000  0.02965500  1
  O  O22  1  0.17399700  0.71065200  0.44990300  1
  O  O23  1  0.82600300  0.28934800  0.55009700  1
  O  O24  1  0.28187400  0.81469300  0.14986900  1
  O  O25  1  0.71812600  0.18530700  0.85013100  1
  O  O26  1  0.73846000  0.52411700  0.30004200  1
  O  O27  1  0.26154000  0.47588300  0.69995800  1
