# generated using pymatgen
data_Pu3O2
_symmetry_space_group_name_H-M   'P 1'
_cell_length_a   6.17712776
_cell_length_b   6.17712776
_cell_length_c   16.91606415
_cell_angle_alpha   90.00000000
_cell_angle_beta   90.00000000
_cell_angle_gamma   120.00000000
_symmetry_Int_Tables_number   1
_chemical_formula_structural   Pu3O2
_chemical_formula_sum   'Pu18 O12'
_cell_volume   558.98882092
_cell_formula_units_Z   6
loop_
 _symmetry_equiv_pos_site_id
 _symmetry_equiv_pos_as_xyz
  1  'x, y, z'
loop_
 _atom_site_type_symbol
 _atom_site_label
 _atom_site_symmetry_multiplicity
 _atom_site_fract_x
 _atom_site_fract_y
 _atom_site_fract_z
 _atom_site_occupancy
  Pu  Pu0  1  0.66806500  0.66806500  0.25000000  1
  Pu  Pu1  1  0.00000000  0.33193500  0.25000000  1
  Pu  Pu2  1  0.33193500  0.00000000  0.25000000  1
  Pu  Pu3  1  0.33473167  0.33333333  0.08333333  1
  Pu  Pu4  1  0.66666667  0.00139833  0.08333333  1
  Pu  Pu5  1  0.99860167  0.66526833  0.08333333  1
  Pu  Pu6  1  0.33473167  0.00139833  0.58333333  1
  Pu  Pu7  1  0.66666667  0.66526833  0.58333333  1
  Pu  Pu8  1  0.99860167  0.33333333  0.58333333  1
  Pu  Pu9  1  0.00139833  0.66666667  0.41666667  1
  Pu  Pu10  1  0.33333333  0.33473167  0.41666667  1
  Pu  Pu11  1  0.66526833  0.99860167  0.41666667  1
  Pu  Pu12  1  0.00139833  0.33473167  0.91666667  1
  Pu  Pu13  1  0.33333333  0.99860167  0.91666667  1
  Pu  Pu14  1  0.66526833  0.66666667  0.91666667  1
  Pu  Pu15  1  0.66806500  0.00000000  0.75000000  1
  Pu  Pu16  1  0.00000000  0.66806500  0.75000000  1
  Pu  Pu17  1  0.33193500  0.33193500  0.75000000  1
  O  O18  1  0.66666667  0.33333333  0.17100833  1
  O  O19  1  0.33333333  0.66666667  0.32899167  1
  O  O20  1  0.33333333  0.66666667  0.00434167  1
  O  O21  1  0.00000000  0.00000000  0.16232500  1
  O  O22  1  0.33333333  0.66666667  0.50434167  1
  O  O23  1  0.00000000  0.00000000  0.66232500  1
  O  O24  1  0.00000000  0.00000000  0.33767500  1
  O  O25  1  0.66666667  0.33333333  0.49565833  1
  O  O26  1  0.00000000  0.00000000  0.83767500  1
  O  O27  1  0.66666667  0.33333333  0.99565833  1
  O  O28  1  0.66666667  0.33333333  0.67100833  1
  O  O29  1  0.33333333  0.66666667  0.82899167  1
