# generated using pymatgen
data_Li7V(O2F)2
_symmetry_space_group_name_H-M   'P 1'
_cell_length_a   5.52295468
_cell_length_b   5.85930247
_cell_length_c   9.85261856
_cell_angle_alpha   105.75889837
_cell_angle_beta   89.66403480
_cell_angle_gamma   117.29199378
_symmetry_Int_Tables_number   1
_chemical_formula_structural   Li7V(O2F)2
_chemical_formula_sum   'Li14 V2 O8 F4'
_cell_volume   270.05712005
_cell_formula_units_Z   2
loop_
 _symmetry_equiv_pos_site_id
 _symmetry_equiv_pos_as_xyz
  1  'x, y, z'
loop_
 _atom_site_type_symbol
 _atom_site_label
 _atom_site_symmetry_multiplicity
 _atom_site_fract_x
 _atom_site_fract_y
 _atom_site_fract_z
 _atom_site_occupancy
  Li  Li0  1  0.03234850  0.93893450  0.76406150  1
  Li  Li1  1  0.49837750  0.39096900  0.25108000  1
  Li  Li2  1  0.54424350  0.04536850  0.61863750  1
  Li  Li3  1  0.96281500  0.45359100  0.87163000  1
  Li  Li4  1  0.02856350  0.74466300  0.54568500  1
  Li  Li5  1  0.52772500  0.30926350  0.04792950  1
  Li  Li6  1  0.97940750  0.66296900  0.31501700  1
  Li  Li7  1  0.45058450  0.70174900  0.94917000  1
  Li  Li8  1  0.95978700  0.20905750  0.45086750  1
  Li  Li9  1  0.01743100  0.52657000  0.12180600  1
  Li  Li10  1  0.49608850  0.99132750  0.38486750  1
  Li  Li11  1  0.42039500  0.52165700  0.73403400  1
  Li  Li12  1  0.03308300  0.11381600  0.25452400  1
  Li  Li13  1  0.51607300  0.84153200  0.19242000  1
  V  V14  1  0.02402050  0.98246250  0.00950050  1
  V  V15  1  0.49572650  0.52685250  0.47479350  1
  O  O16  1  0.29601050  0.04693400  0.19524000  1
  O  O17  1  0.15353550  0.77554350  0.95438750  1
  O  O18  1  0.69114400  0.33099800  0.45042200  1
  O  O19  1  0.73213350  0.65692850  0.11598250  1
  O  O20  1  0.24446100  0.33821700  0.89819800  1
  O  O21  1  0.34890600  0.71451150  0.54441650  1
  O  O22  1  0.22206750  0.46086750  0.30518150  1
  O  O23  1  0.78555300  0.87463450  0.38121550  1
  F  F24  1  0.23088150  0.13451200  0.60851000  1
  F  F25  1  0.78562700  0.57639100  0.69015600  1
  F  F26  1  0.81669200  0.19914000  0.06057100  1
  F  F27  1  0.70632100  0.93054200  0.80969500  1
