# generated using pymatgen
data_Co3(AsO4)2
_symmetry_space_group_name_H-M   'P 1'
_cell_length_a   6.96195800
_cell_length_b   6.96195800
_cell_length_c   18.90346800
_cell_angle_alpha   90.00000000
_cell_angle_beta   90.00000000
_cell_angle_gamma   90.00000000
_symmetry_Int_Tables_number   1
_chemical_formula_structural   Co3(AsO4)2
_chemical_formula_sum   'Co18 As12 O48'
_cell_volume   916.22952877
_cell_formula_units_Z   6
loop_
 _symmetry_equiv_pos_site_id
 _symmetry_equiv_pos_as_xyz
  1  'x, y, z'
loop_
 _atom_site_type_symbol
 _atom_site_label
 _atom_site_symmetry_multiplicity
 _atom_site_fract_x
 _atom_site_fract_y
 _atom_site_fract_z
 _atom_site_occupancy
  Co  Co0  1  0.25401300  0.75381700  0.37611400  1
  Co  Co1  1  0.00000000  0.00000000  0.22559000  1
  Co  Co2  1  0.00000000  0.50000000  0.25000000  1
  Co  Co3  1  0.74618300  0.75401300  0.12388600  1
  Co  Co4  1  0.74598700  0.24618300  0.37611400  1
  Co  Co5  1  0.50000000  0.00000000  0.47850800  1
  Co  Co6  1  0.50000000  0.00000000  0.02149200  1
  Co  Co7  1  0.50000000  0.50000000  0.27441000  1
  Co  Co8  1  0.25381700  0.24598700  0.12388600  1
  Co  Co9  1  0.75401300  0.25381700  0.87611400  1
  Co  Co10  1  0.50000000  0.50000000  0.72559000  1
  Co  Co11  1  0.50000000  0.00000000  0.75000000  1
  Co  Co12  1  0.24618300  0.25401300  0.62388600  1
  Co  Co13  1  0.24598700  0.74618300  0.87611400  1
  Co  Co14  1  0.00000000  0.50000000  0.97850800  1
  Co  Co15  1  0.00000000  0.50000000  0.52149200  1
  Co  Co16  1  0.00000000  0.00000000  0.77441000  1
  Co  Co17  1  0.75381700  0.74598700  0.62388600  1
  As  As18  1  0.00000000  0.00000000  0.00000000  1
  As  As19  1  0.15510550  0.25160250  0.37659750  1
  As  As20  1  0.84489450  0.74839750  0.37659750  1
  As  As21  1  0.75160250  0.34489450  0.12340250  1
  As  As22  1  0.50000000  0.00000000  0.25000000  1
  As  As23  1  0.24839750  0.65510550  0.12340250  1
  As  As24  1  0.50000000  0.50000000  0.50000000  1
  As  As25  1  0.65510550  0.75160250  0.87659750  1
  As  As26  1  0.34489450  0.24839750  0.87659750  1
  As  As27  1  0.25160250  0.84489450  0.62340250  1
  As  As28  1  0.00000000  0.50000000  0.75000000  1
  As  As29  1  0.74839750  0.15510550  0.62340250  1
  O  O30  1  0.44676150  0.71064050  0.45569650  1
  O  O31  1  0.28179300  0.04709900  0.39457800  1
  O  O32  1  0.27429950  0.45743350  0.34957450  1
  O  O33  1  0.04256650  0.77429950  0.15042550  1
  O  O34  1  0.01420200  0.70421300  0.44142200  1
  O  O35  1  0.00475950  0.77394450  0.30332250  1
  O  O36  1  0.99524050  0.22605550  0.30332250  1
  O  O37  1  0.98579800  0.29578700  0.44142200  1
  O  O38  1  0.95743350  0.22570050  0.15042550  1
  O  O39  1  0.78935950  0.94676150  0.04430350  1
  O  O40  1  0.79578700  0.51420200  0.05857800  1
  O  O41  1  0.71820700  0.95290100  0.39457800  1
  O  O42  1  0.72570050  0.54256650  0.34957450  1
  O  O43  1  0.72605550  0.50475950  0.19667750  1
  O  O44  1  0.71101600  0.94000400  0.20662200  1
  O  O45  1  0.55323850  0.28935950  0.45569650  1
  O  O46  1  0.55999600  0.21101600  0.29337800  1
  O  O47  1  0.54709900  0.21820700  0.10542200  1
  O  O48  1  0.45290100  0.78179300  0.10542200  1
  O  O49  1  0.44000400  0.78898400  0.29337800  1
  O  O50  1  0.28898400  0.05999600  0.20662200  1
  O  O51  1  0.27394450  0.49524050  0.19667750  1
  O  O52  1  0.20421300  0.48579800  0.05857800  1
  O  O53  1  0.21064050  0.05323850  0.04430350  1
  O  O54  1  0.94676150  0.21064050  0.95569650  1
  O  O55  1  0.78179300  0.54709900  0.89457800  1
  O  O56  1  0.77429950  0.95743350  0.84957450  1
  O  O57  1  0.54256650  0.27429950  0.65042550  1
  O  O58  1  0.51420200  0.20421300  0.94142200  1
  O  O59  1  0.50475950  0.27394450  0.80332250  1
  O  O60  1  0.49524050  0.72605550  0.80332250  1
  O  O61  1  0.48579800  0.79578700  0.94142200  1
  O  O62  1  0.45743350  0.72570050  0.65042550  1
  O  O63  1  0.28935950  0.44676150  0.54430350  1
  O  O64  1  0.29578700  0.01420200  0.55857800  1
  O  O65  1  0.21820700  0.45290100  0.89457800  1
  O  O66  1  0.22570050  0.04256650  0.84957450  1
  O  O67  1  0.22605550  0.00475950  0.69667750  1
  O  O68  1  0.21101600  0.44000400  0.70662200  1
  O  O69  1  0.05323850  0.78935950  0.95569650  1
  O  O70  1  0.05999600  0.71101600  0.79337800  1
  O  O71  1  0.04709900  0.71820700  0.60542200  1
  O  O72  1  0.95290100  0.28179300  0.60542200  1
  O  O73  1  0.94000400  0.28898400  0.79337800  1
  O  O74  1  0.78898400  0.55999600  0.70662200  1
  O  O75  1  0.77394450  0.99524050  0.69667750  1
  O  O76  1  0.70421300  0.98579800  0.55857800  1
  O  O77  1  0.71064050  0.55323850  0.54430350  1
