# generated using pymatgen
data_Li2Si3NiO8
_symmetry_space_group_name_H-M   'P 1'
_cell_length_a   4.93573700
_cell_length_b   10.07986400
_cell_length_c   6.77956002
_cell_angle_alpha   90.00000000
_cell_angle_beta   90.57720502
_cell_angle_gamma   90.00000000
_symmetry_Int_Tables_number   1
_chemical_formula_structural   Li2Si3NiO8
_chemical_formula_sum   'Li4 Si6 Ni2 O16'
_cell_volume   337.27655598
_cell_formula_units_Z   2
loop_
 _symmetry_equiv_pos_site_id
 _symmetry_equiv_pos_as_xyz
  1  'x, y, z'
loop_
 _atom_site_type_symbol
 _atom_site_label
 _atom_site_symmetry_multiplicity
 _atom_site_fract_x
 _atom_site_fract_y
 _atom_site_fract_z
 _atom_site_occupancy
  Li  Li0  1  0.92995500  0.14673100  0.75057100  1
  Li  Li1  1  0.07004500  0.64673100  0.24942900  1
  Li  Li2  1  0.40790400  0.34130200  0.26390800  1
  Li  Li3  1  0.59209600  0.84130200  0.73609200  1
  Si  Si4  1  0.44342500  0.33633000  0.77407400  1
  Si  Si5  1  0.05152200  0.91236800  0.48050200  1
  Si  Si6  1  0.94847800  0.41236800  0.51949800  1
  Si  Si7  1  0.55657500  0.83633000  0.22592600  1
  Si  Si8  1  0.59561100  0.59424700  0.97309700  1
  Si  Si9  1  0.40438900  0.09424700  0.02690300  1
  Ni  Ni10  1  0.92071800  0.16122600  0.25175500  1
  Ni  Ni11  1  0.07928200  0.66122600  0.74824500  1
  O  O12  1  0.98081200  0.84230100  0.68654900  1
  O  O13  1  0.12238600  0.33922600  0.70715400  1
  O  O14  1  0.37421000  0.87901300  0.41803900  1
  O  O15  1  0.01261700  0.56784300  0.50196100  1
  O  O16  1  0.62579000  0.37901300  0.58196100  1
  O  O17  1  0.98738300  0.06784300  0.49803900  1
  O  O18  1  0.87761400  0.83922600  0.29284600  1
  O  O19  1  0.01918800  0.34230100  0.31345100  1
  O  O20  1  0.46962500  0.68097900  0.16883800  1
  O  O21  1  0.52271500  0.16497900  0.22292900  1
  O  O22  1  0.51170800  0.93390000  0.02836300  1
  O  O23  1  0.91897800  0.59955400  0.99937800  1
  O  O24  1  0.48829200  0.43390000  0.97163700  1
  O  O25  1  0.08102200  0.09955400  0.00062200  1
  O  O26  1  0.47728500  0.66497900  0.77707100  1
  O  O27  1  0.53037500  0.18097900  0.83116200  1
