# generated using pymatgen
data_Li4Ti2Mn3Co3O16
_symmetry_space_group_name_H-M   'P 1'
_cell_length_a   5.86541422
_cell_length_b   5.88817124
_cell_length_c   9.49435023
_cell_angle_alpha   91.17580163
_cell_angle_beta   90.68684602
_cell_angle_gamma   119.51110141
_symmetry_Int_Tables_number   1
_chemical_formula_structural   Li4Ti2Mn3Co3O16
_chemical_formula_sum   'Li4 Ti2 Mn3 Co3 O16'
_cell_volume   285.20818590
_cell_formula_units_Z   1
loop_
 _symmetry_equiv_pos_site_id
 _symmetry_equiv_pos_as_xyz
  1  'x, y, z'
loop_
 _atom_site_type_symbol
 _atom_site_label
 _atom_site_symmetry_multiplicity
 _atom_site_fract_x
 _atom_site_fract_y
 _atom_site_fract_z
 _atom_site_occupancy
  Li  Li0  1  0.66268900  0.32464900  0.89814000  1
  Li  Li1  1  0.99907600  0.99673000  0.99423700  1
  Li  Li2  1  0.99396000  0.00324100  0.49275000  1
  Li  Li3  1  0.32912100  0.66603000  0.39541900  1
  Ti  Ti4  1  0.66171800  0.33686400  0.49669900  1
  Ti  Ti5  1  0.32935000  0.65323200  0.99819600  1
  Mn  Mn6  1  0.34599900  0.17139800  0.21561200  1
  Mn  Mn7  1  0.17526000  0.34470000  0.71609400  1
  Mn  Mn8  1  0.16591800  0.82780900  0.71231500  1
  Co  Co9  1  0.83516500  0.17416100  0.21739300  1
  Co  Co10  1  0.83240600  0.65884700  0.21458300  1
  Co  Co11  1  0.65751200  0.84095500  0.71918600  1
  O  O12  1  0.83804200  0.17998400  0.59652600  1
  O  O13  1  0.95752800  0.48156900  0.33967200  1
  O  O14  1  0.64974800  0.31942000  0.10634600  1
  O  O15  1  0.01869000  0.00962400  0.30491000  1
  O  O16  1  0.01847800  0.01569900  0.80502400  1
  O  O17  1  0.83086900  0.67306600  0.59329600  1
  O  O18  1  0.51181800  0.04192000  0.34145000  1
  O  O19  1  0.51135000  0.47350100  0.33850500  1
  O  O20  1  0.66824700  0.82774300  0.09425800  1
  O  O21  1  0.33852000  0.19121700  0.59208300  1
  O  O22  1  0.47598500  0.51101800  0.83839800  1
  O  O23  1  0.47917300  0.95543300  0.83954400  1
  O  O24  1  0.31636000  0.65358700  0.60816400  1
  O  O25  1  0.17949700  0.33298300  0.09820800  1
  O  O26  1  0.03944000  0.49778000  0.84642600  1
  O  O27  1  0.17807600  0.83653500  0.09440600  1
