# generated using pymatgen
data_Li4Cu2Ni5O12
_symmetry_space_group_name_H-M   'P 1'
_cell_length_a   5.27088709
_cell_length_b   8.56290013
_cell_length_c   9.57282716
_cell_angle_alpha   90.00000000
_cell_angle_beta   97.20321735
_cell_angle_gamma   90.00000000
_symmetry_Int_Tables_number   1
_chemical_formula_structural   Li4Cu2Ni5O12
_chemical_formula_sum   'Li8 Cu4 Ni10 O24'
_cell_volume   428.65077474
_cell_formula_units_Z   2
loop_
 _symmetry_equiv_pos_site_id
 _symmetry_equiv_pos_as_xyz
  1  'x, y, z'
loop_
 _atom_site_type_symbol
 _atom_site_label
 _atom_site_symmetry_multiplicity
 _atom_site_fract_x
 _atom_site_fract_y
 _atom_site_fract_z
 _atom_site_occupancy
  Li  Li0  1  0.50448500  0.90904200  0.74571300  1
  Li  Li1  1  0.00338400  0.60320400  0.25808200  1
  Li  Li2  1  0.75839100  0.57582900  0.51005800  1
  Li  Li3  1  0.48897400  0.58431700  0.74078300  1
  Li  Li4  1  0.24160900  0.07582900  0.48994200  1
  Li  Li5  1  0.49551500  0.40904200  0.25428700  1
  Li  Li6  1  0.99661600  0.10320400  0.74191800  1
  Li  Li7  1  0.51102600  0.08431700  0.25921700  1
  Cu  Cu8  1  0.25096900  0.74353700  0.49883500  1
  Cu  Cu9  1  0.75122500  0.76172100  0.00512800  1
  Cu  Cu10  1  0.24877500  0.26172100  0.99487200  1
  Cu  Cu11  1  0.74903100  0.24353700  0.50116500  1
  Ni  Ni12  1  0.24251800  0.92120600  0.00153000  1
  Ni  Ni13  1  0.75421300  0.90874800  0.50010500  1
  Ni  Ni14  1  0.99982500  0.74497900  0.74835800  1
  Ni  Ni15  1  0.25481500  0.58938900  0.99844000  1
  Ni  Ni16  1  0.50496300  0.74945900  0.25498800  1
  Ni  Ni17  1  0.24578700  0.40874800  0.49989500  1
  Ni  Ni18  1  0.75748200  0.42120600  0.99847000  1
  Ni  Ni19  1  0.00017500  0.24497900  0.25164200  1
  Ni  Ni20  1  0.49503700  0.24945900  0.74501200  1
  Ni  Ni21  1  0.74518500  0.08938900  0.00156000  1
  O  O22  1  0.12663800  0.89249700  0.61689500  1
  O  O23  1  0.86962100  0.91646700  0.89267900  1
  O  O24  1  0.18394700  0.74281100  0.13212900  1
  O  O25  1  0.60633700  0.91979900  0.10577600  1
  O  O26  1  0.81809400  0.74892700  0.37174100  1
  O  O27  1  0.39509800  0.89320800  0.38925000  1
  O  O28  1  0.14423000  0.58721800  0.61191900  1
  O  O29  1  0.67942900  0.75244500  0.63818900  1
  O  O30  1  0.87472100  0.61010200  0.89241800  1
  O  O31  1  0.32328900  0.74951700  0.86422300  1
  O  O32  1  0.63538800  0.60519300  0.11945300  1
  O  O33  1  0.13037900  0.41646700  0.10732100  1
  O  O34  1  0.34813400  0.58161700  0.38457600  1
  O  O35  1  0.87336200  0.39249700  0.38310500  1
  O  O36  1  0.18190600  0.24892700  0.62825900  1
  O  O37  1  0.60490200  0.39320800  0.61075000  1
  O  O38  1  0.81605300  0.24281100  0.86787100  1
  O  O39  1  0.39366300  0.41979900  0.89422400  1
  O  O40  1  0.12527900  0.11010200  0.10758200  1
  O  O41  1  0.67671100  0.24951700  0.13577700  1
  O  O42  1  0.85577000  0.08721800  0.38808100  1
  O  O43  1  0.32057100  0.25244500  0.36181100  1
  O  O44  1  0.65186600  0.08161700  0.61542400  1
  O  O45  1  0.36461200  0.10519300  0.88054700  1
