# generated using pymatgen
data_FeOF
_symmetry_space_group_name_H-M   'P 1'
_cell_length_a   4.75922500
_cell_length_b   3.09064100
_cell_length_c   14.30328826
_cell_angle_alpha   90.00000000
_cell_angle_beta   92.14168251
_cell_angle_gamma   90.00000000
_symmetry_Int_Tables_number   1
_chemical_formula_structural   FeOF
_chemical_formula_sum   'Fe6 O6 F6'
_cell_volume   210.24090476
_cell_formula_units_Z   6
loop_
 _symmetry_equiv_pos_site_id
 _symmetry_equiv_pos_as_xyz
  1  'x, y, z'
loop_
 _atom_site_type_symbol
 _atom_site_label
 _atom_site_symmetry_multiplicity
 _atom_site_fract_x
 _atom_site_fract_y
 _atom_site_fract_z
 _atom_site_occupancy
  Fe  Fe0  1  0.06309900  0.00000000  0.00035100  1
  Fe  Fe1  1  0.98306400  0.00000000  0.33182700  1
  Fe  Fe2  1  0.03250900  0.00000000  0.66531300  1
  Fe  Fe3  1  0.51891600  0.50000000  0.16515000  1
  Fe  Fe4  1  0.43395700  0.50000000  0.49821300  1
  Fe  Fe5  1  0.46490800  0.50000000  0.83399100  1
  O  O6  1  0.18113200  0.50000000  0.60057600  1
  O  O7  1  0.21120700  0.50000000  0.93646300  1
  O  O8  1  0.32303000  0.00000000  0.10608200  1
  O  O9  1  0.30777000  0.00000000  0.76907200  1
  O  O10  1  0.28417000  0.00000000  0.43015900  1
  O  O11  1  0.70336900  0.00000000  0.23574700  1
  F  F12  1  0.18622600  0.50000000  0.27020900  1
  F  F13  1  0.68051600  0.00000000  0.56359300  1
  F  F14  1  0.70893100  0.00000000  0.89875100  1
  F  F15  1  0.82277700  0.50000000  0.06262600  1
  F  F16  1  0.79102200  0.50000000  0.40166100  1
  F  F17  1  0.80339700  0.50000000  0.73021500  1
