# generated using pymatgen
data_Li2Cu2F7
_symmetry_space_group_name_H-M   'P 1'
_cell_length_a   3.91955100
_cell_length_b   25.84267697
_cell_length_c   5.24549752
_cell_angle_alpha   90.00000000
_cell_angle_beta   90.00000000
_cell_angle_gamma   90.00000000
_symmetry_Int_Tables_number   1
_chemical_formula_structural   Li2Cu2F7
_chemical_formula_sum   'Li8 Cu8 F28'
_cell_volume   531.32531007
_cell_formula_units_Z   4
loop_
 _symmetry_equiv_pos_site_id
 _symmetry_equiv_pos_as_xyz
  1  'x, y, z'
loop_
 _atom_site_type_symbol
 _atom_site_label
 _atom_site_symmetry_multiplicity
 _atom_site_fract_x
 _atom_site_fract_y
 _atom_site_fract_z
 _atom_site_occupancy
  Li  Li0  1  0.50000000  0.92812700  0.54917400  1
  Li  Li1  1  0.50000000  0.77206650  0.02407600  1
  Li  Li2  1  0.00000000  0.72793350  0.52407600  1
  Li  Li3  1  0.00000000  0.57187300  0.04917400  1
  Li  Li4  1  0.00000000  0.42812700  0.54917400  1
  Li  Li5  1  0.00000000  0.27206650  0.02407600  1
  Li  Li6  1  0.50000000  0.22793350  0.52407600  1
  Li  Li7  1  0.50000000  0.07187300  0.04917400  1
  Cu  Cu8  1  0.50000000  0.55265400  0.47636600  1
  Cu  Cu9  1  0.50000000  0.65968150  0.95825000  1
  Cu  Cu10  1  0.00000000  0.84031850  0.45825000  1
  Cu  Cu11  1  0.00000000  0.94734600  0.97636600  1
  Cu  Cu12  1  0.00000000  0.05265400  0.47636600  1
  Cu  Cu13  1  0.00000000  0.15968150  0.95825000  1
  Cu  Cu14  1  0.50000000  0.34031850  0.45825000  1
  Cu  Cu15  1  0.50000000  0.44734600  0.97636600  1
  F  F16  1  0.50000000  0.51637200  0.80280900  1
  F  F17  1  0.50000000  0.59190700  0.15074000  1
  F  F18  1  0.50000000  0.61651700  0.66002800  1
  F  F19  1  0.50000000  0.70488250  0.24187000  1
  F  F20  1  0.50000000  0.85247250  0.46756000  1
  F  F21  1  0.50000000  0.94999750  0.93200700  1
  F  F22  1  0.50000000  0.72031950  0.74721100  1
  F  F23  1  0.00000000  0.77968050  0.24721100  1
  F  F24  1  0.00000000  0.55000250  0.43200700  1
  F  F25  1  0.00000000  0.64752750  0.96756000  1
  F  F26  1  0.00000000  0.79511750  0.74187000  1
  F  F27  1  0.00000000  0.90809300  0.65074000  1
  F  F28  1  0.00000000  0.88348300  0.16002800  1
  F  F29  1  0.00000000  0.98362800  0.30280900  1
  F  F30  1  0.00000000  0.01637200  0.80280900  1
  F  F31  1  0.00000000  0.09190700  0.15074000  1
  F  F32  1  0.00000000  0.11651700  0.66002800  1
  F  F33  1  0.00000000  0.20488250  0.24187000  1
  F  F34  1  0.00000000  0.35247250  0.46756000  1
  F  F35  1  0.00000000  0.44999750  0.93200700  1
  F  F36  1  0.00000000  0.22031950  0.74721100  1
  F  F37  1  0.50000000  0.27968050  0.24721100  1
  F  F38  1  0.50000000  0.05000250  0.43200700  1
  F  F39  1  0.50000000  0.14752750  0.96756000  1
  F  F40  1  0.50000000  0.29511750  0.74187000  1
  F  F41  1  0.50000000  0.40809300  0.65074000  1
  F  F42  1  0.50000000  0.38348300  0.16002800  1
  F  F43  1  0.50000000  0.48362800  0.30280900  1
