# generated using pymatgen
data_Li4MnCo3O8
_symmetry_space_group_name_H-M   'P 1'
_cell_length_a   10.45891600
_cell_length_b   5.82359200
_cell_length_c   5.86697648
_cell_angle_alpha   90.00000000
_cell_angle_beta   124.04832686
_cell_angle_gamma   90.00000000
_symmetry_Int_Tables_number   1
_chemical_formula_structural   Li4MnCo3O8
_chemical_formula_sum   'Li8 Mn2 Co6 O16'
_cell_volume   296.08668083
_cell_formula_units_Z   2
loop_
 _symmetry_equiv_pos_site_id
 _symmetry_equiv_pos_as_xyz
  1  'x, y, z'
loop_
 _atom_site_type_symbol
 _atom_site_label
 _atom_site_symmetry_multiplicity
 _atom_site_fract_x
 _atom_site_fract_y
 _atom_site_fract_z
 _atom_site_occupancy
  Li  Li0  1  0.00000000  0.50000000  0.00000000  1
  Li  Li1  1  0.25000000  0.25000000  0.00000000  1
  Li  Li2  1  0.00000000  0.00000000  0.00000000  1
  Li  Li3  1  0.25000000  0.75000000  0.00000000  1
  Li  Li4  1  0.50000000  0.00000000  0.00000000  1
  Li  Li5  1  0.75000000  0.75000000  0.00000000  1
  Li  Li6  1  0.50000000  0.50000000  0.00000000  1
  Li  Li7  1  0.75000000  0.25000000  0.00000000  1
  Mn  Mn8  1  0.00000000  0.00000000  0.50000000  1
  Mn  Mn9  1  0.50000000  0.50000000  0.50000000  1
  Co  Co10  1  0.00000000  0.50000000  0.50000000  1
  Co  Co11  1  0.25000000  0.25000000  0.50000000  1
  Co  Co12  1  0.25000000  0.75000000  0.50000000  1
  Co  Co13  1  0.50000000  0.00000000  0.50000000  1
  Co  Co14  1  0.75000000  0.75000000  0.50000000  1
  Co  Co15  1  0.75000000  0.25000000  0.50000000  1
  O  O16  1  0.00697000  0.75620000  0.27562200  1
  O  O17  1  0.24182300  0.50000000  0.26427600  1
  O  O18  1  0.24007200  0.50000000  0.73103800  1
  O  O19  1  0.00697000  0.24380000  0.27562200  1
  O  O20  1  0.49303000  0.25620000  0.72437800  1
  O  O21  1  0.25992800  0.00000000  0.26896200  1
  O  O22  1  0.25817700  0.00000000  0.73572400  1
  O  O23  1  0.49303000  0.74380000  0.72437800  1
  O  O24  1  0.50697000  0.25620000  0.27562200  1
  O  O25  1  0.74182300  0.00000000  0.26427600  1
  O  O26  1  0.74007200  0.00000000  0.73103800  1
  O  O27  1  0.50697000  0.74380000  0.27562200  1
  O  O28  1  0.99303000  0.75620000  0.72437800  1
  O  O29  1  0.75992800  0.50000000  0.26896200  1
  O  O30  1  0.75817700  0.50000000  0.73572400  1
  O  O31  1  0.99303000  0.24380000  0.72437800  1
