# generated using pymatgen
data_LiV3(OF3)2
_symmetry_space_group_name_H-M   'P 1'
_cell_length_a   5.61016172
_cell_length_b   4.68979300
_cell_length_c   10.50468010
_cell_angle_alpha   90.00000000
_cell_angle_beta   96.86932156
_cell_angle_gamma   90.00000000
_symmetry_Int_Tables_number   1
_chemical_formula_structural   LiV3(OF3)2
_chemical_formula_sum   'Li2 V6 O4 F12'
_cell_volume   274.39934526
_cell_formula_units_Z   2
loop_
 _symmetry_equiv_pos_site_id
 _symmetry_equiv_pos_as_xyz
  1  'x, y, z'
loop_
 _atom_site_type_symbol
 _atom_site_label
 _atom_site_symmetry_multiplicity
 _atom_site_fract_x
 _atom_site_fract_y
 _atom_site_fract_z
 _atom_site_occupancy
  Li  Li0  1  0.00000000  0.00000000  0.00000000  1
  Li  Li1  1  0.00000000  0.50000000  0.50000000  1
  V  V2  1  0.50000000  0.50000000  0.00000000  1
  V  V3  1  0.26911800  0.98342500  0.75268050  1
  V  V4  1  0.73088200  0.48342500  0.74731950  1
  V  V5  1  0.50000000  0.00000000  0.50000000  1
  V  V6  1  0.26911800  0.51657500  0.25268050  1
  V  V7  1  0.73088200  0.01657500  0.24731950  1
  O  O8  1  0.48201100  0.68554900  0.82826950  1
  O  O9  1  0.51798900  0.18554900  0.67173050  1
  O  O10  1  0.48201100  0.81445100  0.32826950  1
  O  O11  1  0.51798900  0.31445100  0.17173050  1
  F  F12  1  0.27830400  0.19604800  0.92399850  1
  F  F13  1  0.77442500  0.29596800  0.92477450  1
  F  F14  1  0.98065500  0.78643800  0.81861650  1
  F  F15  1  0.01934500  0.28643800  0.68138350  1
  F  F16  1  0.22557500  0.79596800  0.57522550  1
  F  F17  1  0.72169600  0.69604800  0.57600150  1
  F  F18  1  0.27830400  0.30395200  0.42399850  1
  F  F19  1  0.77442500  0.20403200  0.42477450  1
  F  F20  1  0.98065500  0.71356200  0.31861650  1
  F  F21  1  0.01934500  0.21356200  0.18138350  1
  F  F22  1  0.22557500  0.70403200  0.07522550  1
  F  F23  1  0.72169600  0.80395200  0.07600150  1
