# generated using pymatgen
data_NaLi3Ti2Fe2(PO4)6
_symmetry_space_group_name_H-M   'P 1'
_cell_length_a   8.47470188
_cell_length_b   8.47470188
_cell_length_c   22.51950223
_cell_angle_alpha   90.00000000
_cell_angle_beta   90.00000000
_cell_angle_gamma   120.00000000
_symmetry_Int_Tables_number   1
_chemical_formula_structural   NaLi3Ti2Fe2(PO4)6
_chemical_formula_sum   'Na3 Li9 Ti6 Fe6 P18 O72'
_cell_volume   1400.67790547
_cell_formula_units_Z   3
loop_
 _symmetry_equiv_pos_site_id
 _symmetry_equiv_pos_as_xyz
  1  'x, y, z'
loop_
 _atom_site_type_symbol
 _atom_site_label
 _atom_site_symmetry_multiplicity
 _atom_site_fract_x
 _atom_site_fract_y
 _atom_site_fract_z
 _atom_site_occupancy
  Na  Na0  1  0.33333333  0.66666667  0.16217267  1
  Na  Na1  1  0.00000000  0.00000000  0.49550600  1
  Na  Na2  1  0.66666667  0.33333333  0.82883933  1
  Li  Li3  1  0.97531433  0.61156367  0.28617467  1
  Li  Li4  1  0.38843633  0.36375067  0.28617467  1
  Li  Li5  1  0.63624933  0.02468567  0.28617467  1
  Li  Li6  1  0.64198100  0.94489700  0.61950800  1
  Li  Li7  1  0.05510300  0.69708400  0.61950800  1
  Li  Li8  1  0.30291600  0.35801900  0.61950800  1
  Li  Li9  1  0.30864767  0.27823033  0.95284133  1
  Li  Li10  1  0.72176967  0.03041733  0.95284133  1
  Li  Li11  1  0.96958267  0.69135233  0.95284133  1
  Ti  Ti12  1  0.66666667  0.33333333  0.18659333  1
  Ti  Ti13  1  0.00000000  0.00000000  0.14263500  1
  Ti  Ti14  1  0.33333333  0.66666667  0.51992667  1
  Ti  Ti15  1  0.66666667  0.33333333  0.47596833  1
  Ti  Ti16  1  0.00000000  0.00000000  0.85326000  1
  Ti  Ti17  1  0.33333333  0.66666667  0.80930167  1
  Fe  Fe18  1  0.33333333  0.66666667  0.02060367  1
  Fe  Fe19  1  0.33333333  0.66666667  0.31912867  1
  Fe  Fe20  1  0.00000000  0.00000000  0.35393700  1
  Fe  Fe21  1  0.00000000  0.00000000  0.65246200  1
  Fe  Fe22  1  0.66666667  0.33333333  0.68727033  1
  Fe  Fe23  1  0.66666667  0.33333333  0.98579533  1
  P  P24  1  0.99788867  0.28290933  0.25086733  1
  P  P25  1  0.95860533  0.62410767  0.08416867  1
  P  P26  1  0.37589233  0.33449767  0.08416867  1
  P  P27  1  0.28502067  0.00211133  0.25086733  1
  P  P28  1  0.71709067  0.71497933  0.25086733  1
  P  P29  1  0.66550233  0.04139467  0.08416867  1
  P  P30  1  0.66455533  0.61624267  0.58420067  1
  P  P31  1  0.62527200  0.95744100  0.41750200  1
  P  P32  1  0.04255900  0.66783100  0.41750200  1
  P  P33  1  0.95168733  0.33544467  0.58420067  1
  P  P34  1  0.38375733  0.04831267  0.58420067  1
  P  P35  1  0.33216900  0.37472800  0.41750200  1
  P  P36  1  0.33122200  0.94957600  0.91753400  1
  P  P37  1  0.29193867  0.29077433  0.75083533  1
  P  P38  1  0.70922567  0.00116433  0.75083533  1
  P  P39  1  0.61835400  0.66877800  0.91753400  1
  P  P40  1  0.05042400  0.38164600  0.91753400  1
  P  P41  1  0.99883567  0.70806133  0.75083533  1
  O  O42  1  0.44117000  0.27573900  0.02851900  1
  O  O43  1  0.72426100  0.16543100  0.02851900  1
  O  O44  1  0.00241200  0.19159000  0.19257300  1
  O  O45  1  0.87083567  0.36689033  0.24443333  1
  O  O46  1  0.17422700  0.19182000  0.09259700  1
  O  O47  1  0.83456900  0.55883000  0.02851900  1
  O  O48  1  0.85308500  0.51765800  0.14055300  1
  O  O49  1  0.19544867  0.44019933  0.26324633  1
  O  O50  1  0.12395933  0.59744767  0.07743867  1
  O  O51  1  0.48234200  0.33542700  0.14055300  1
  O  O52  1  0.01759300  0.82577300  0.09259700  1
  O  O53  1  0.40255233  0.52651167  0.07743867  1
  O  O54  1  0.24475067  0.80455133  0.26324633  1
  O  O55  1  0.63310967  0.50394533  0.24443333  1
  O  O56  1  0.18917800  0.99758800  0.19257300  1
  O  O57  1  0.55980067  0.75524933  0.26324633  1
  O  O58  1  0.47348833  0.87604067  0.07743867  1
  O  O59  1  0.80841000  0.81082200  0.19257300  1
  O  O60  1  0.86116500  0.77323200  0.30129100  1
  O  O61  1  0.49605467  0.12916433  0.24443333  1
  O  O62  1  0.80818000  0.98240700  0.09259700  1
  O  O63  1  0.66457300  0.14691500  0.14055300  1
  O  O64  1  0.91206700  0.13883500  0.30129100  1
  O  O65  1  0.22676800  0.08793300  0.30129100  1
  O  O66  1  0.10783667  0.60907233  0.36185233  1
  O  O67  1  0.39092767  0.49876433  0.36185233  1
  O  O68  1  0.66907867  0.52492333  0.52590633  1
  O  O69  1  0.53750233  0.70022367  0.57776667  1
  O  O70  1  0.84089367  0.52515333  0.42593033  1
  O  O71  1  0.50123567  0.89216333  0.36185233  1
  O  O72  1  0.51975167  0.85099133  0.47388633  1
  O  O73  1  0.86211533  0.77353267  0.59657967  1
  O  O74  1  0.79062600  0.93078100  0.41077200  1
  O  O75  1  0.14900867  0.66876033  0.47388633  1
  O  O76  1  0.68425967  0.15910633  0.42593033  1
  O  O77  1  0.06921900  0.85984500  0.41077200  1
  O  O78  1  0.91141733  0.13788467  0.59657967  1
  O  O79  1  0.29977633  0.83727867  0.57776667  1
  O  O80  1  0.85584467  0.33092133  0.52590633  1
  O  O81  1  0.22646733  0.08858267  0.59657967  1
  O  O82  1  0.14015500  0.20937400  0.41077200  1
  O  O83  1  0.47507667  0.14415533  0.52590633  1
  O  O84  1  0.52783167  0.10656533  0.63462433  1
  O  O85  1  0.16272133  0.46249767  0.57776667  1
  O  O86  1  0.47484667  0.31574033  0.42593033  1
  O  O87  1  0.33123967  0.48024833  0.47388633  1
  O  O88  1  0.57873367  0.47216833  0.63462433  1
  O  O89  1  0.89343467  0.42126633  0.63462433  1
  O  O90  1  0.77450333  0.94240567  0.69518567  1
  O  O91  1  0.05759433  0.83209767  0.69518567  1
  O  O92  1  0.33574533  0.85825667  0.85923967  1
  O  O93  1  0.20416900  0.03355700  0.91110000  1
  O  O94  1  0.50756033  0.85848667  0.75926367  1
  O  O95  1  0.16790233  0.22549667  0.69518567  1
  O  O96  1  0.18641833  0.18432467  0.80721967  1
  O  O97  1  0.52878200  0.10686600  0.92991300  1
  O  O98  1  0.45729267  0.26411433  0.74410533  1
  O  O99  1  0.81567533  0.00209367  0.80721967  1
  O  O100  1  0.35092633  0.49243967  0.75926367  1
  O  O101  1  0.73588567  0.19317833  0.74410533  1
  O  O102  1  0.57808400  0.47121800  0.92991300  1
  O  O103  1  0.96644300  0.17061200  0.91110000  1
  O  O104  1  0.52251133  0.66425467  0.85923967  1
  O  O105  1  0.89313400  0.42191600  0.92991300  1
  O  O106  1  0.80682167  0.54270733  0.74410533  1
  O  O107  1  0.14174333  0.47748867  0.85923967  1
  O  O108  1  0.19449833  0.43989867  0.96795767  1
  O  O109  1  0.82938800  0.79583100  0.91110000  1
  O  O110  1  0.14151333  0.64907367  0.75926367  1
  O  O111  1  0.99790633  0.81358167  0.80721967  1
  O  O112  1  0.24540033  0.80550167  0.96795767  1
  O  O113  1  0.56010133  0.75459967  0.96795767  1
