# generated using pymatgen
data_Na3CoO3
_symmetry_space_group_name_H-M   'P 1'
_cell_length_a   8.38970700
_cell_length_b   10.27864400
_cell_length_c   4.77885000
_cell_angle_alpha   90.00000000
_cell_angle_beta   90.00000000
_cell_angle_gamma   90.00000000
_symmetry_Int_Tables_number   1
_chemical_formula_structural   Na3CoO3
_chemical_formula_sum   'Na12 Co4 O12'
_cell_volume   412.10322902
_cell_formula_units_Z   4
loop_
 _symmetry_equiv_pos_site_id
 _symmetry_equiv_pos_as_xyz
  1  'x, y, z'
loop_
 _atom_site_type_symbol
 _atom_site_label
 _atom_site_symmetry_multiplicity
 _atom_site_fract_x
 _atom_site_fract_y
 _atom_site_fract_z
 _atom_site_occupancy
  Na  Na0  1  0.00000000  0.59950100  0.25000000  1
  Na  Na1  1  0.00000000  0.40049900  0.75000000  1
  Na  Na2  1  0.72469250  0.39099350  0.25000000  1
  Na  Na3  1  0.72469250  0.60900650  0.75000000  1
  Na  Na4  1  0.27530750  0.39099350  0.25000000  1
  Na  Na5  1  0.27530750  0.60900650  0.75000000  1
  Na  Na6  1  0.50000000  0.09950100  0.25000000  1
  Na  Na7  1  0.50000000  0.90049900  0.75000000  1
  Na  Na8  1  0.22469250  0.89099350  0.25000000  1
  Na  Na9  1  0.22469250  0.10900650  0.75000000  1
  Na  Na10  1  0.77530750  0.89099350  0.25000000  1
  Na  Na11  1  0.77530750  0.10900650  0.75000000  1
  Co  Co12  1  0.00000000  0.19742350  0.25000000  1
  Co  Co13  1  0.00000000  0.80257650  0.75000000  1
  Co  Co14  1  0.50000000  0.69742350  0.25000000  1
  Co  Co15  1  0.50000000  0.30257650  0.75000000  1
  O  O16  1  0.00000000  0.37177000  0.25000000  1
  O  O17  1  0.00000000  0.62823000  0.75000000  1
  O  O18  1  0.69014050  0.37664400  0.75000000  1
  O  O19  1  0.69014050  0.62335600  0.25000000  1
  O  O20  1  0.30985950  0.62335600  0.25000000  1
  O  O21  1  0.30985950  0.37664400  0.75000000  1
  O  O22  1  0.50000000  0.87177000  0.25000000  1
  O  O23  1  0.50000000  0.12823000  0.75000000  1
  O  O24  1  0.19014050  0.87664400  0.75000000  1
  O  O25  1  0.19014050  0.12335600  0.25000000  1
  O  O26  1  0.80985950  0.12335600  0.25000000  1
  O  O27  1  0.80985950  0.87664400  0.75000000  1
