# generated using pymatgen
data_Co6OF11
_symmetry_space_group_name_H-M   'P 1'
_cell_length_a   6.60903400
_cell_length_b   20.24714800
_cell_length_c   3.21342100
_cell_angle_alpha   90.00000000
_cell_angle_beta   90.00000000
_cell_angle_gamma   90.00000000
_symmetry_Int_Tables_number   1
_chemical_formula_structural   Co6OF11
_chemical_formula_sum   'Co12 O2 F22'
_cell_volume   430.00100541
_cell_formula_units_Z   2
loop_
 _symmetry_equiv_pos_site_id
 _symmetry_equiv_pos_as_xyz
  1  'x, y, z'
loop_
 _atom_site_type_symbol
 _atom_site_label
 _atom_site_symmetry_multiplicity
 _atom_site_fract_x
 _atom_site_fract_y
 _atom_site_fract_z
 _atom_site_occupancy
  Co  Co0  1  0.01871400  0.00000000  0.00000000  1
  Co  Co1  1  0.47874300  0.00000000  0.50000000  1
  Co  Co2  1  0.00243400  0.33348000  0.00000000  1
  Co  Co3  1  0.99829650  0.16699550  0.50000000  1
  Co  Co4  1  0.49829650  0.33300450  0.50000000  1
  Co  Co5  1  0.50243400  0.16652000  0.00000000  1
  Co  Co6  1  0.51871400  0.50000000  0.00000000  1
  Co  Co7  1  0.97874300  0.50000000  0.50000000  1
  Co  Co8  1  0.50243400  0.83348000  0.00000000  1
  Co  Co9  1  0.49829650  0.66699550  0.50000000  1
  Co  Co10  1  0.99829650  0.83300450  0.50000000  1
  Co  Co11  1  0.00243400  0.66652000  0.00000000  1
  O  O12  1  0.29256300  0.00000000  0.00000000  1
  O  O13  1  0.79256300  0.50000000  0.00000000  1
  F  F14  1  0.70925200  0.00000000  0.00000000  1
  F  F15  1  0.69716300  0.33314500  0.00000000  1
  F  F16  1  0.00435400  0.39853700  0.50000000  1
  F  F17  1  0.00192350  0.26792050  0.50000000  1
  F  F18  1  0.49716800  0.43446900  0.50000000  1
  F  F19  1  0.30699600  0.33183200  0.00000000  1
  F  F20  1  0.19716300  0.16685500  0.00000000  1
  F  F21  1  0.99716800  0.06553100  0.50000000  1
  F  F22  1  0.50192350  0.23207950  0.50000000  1
  F  F23  1  0.50435400  0.10146300  0.50000000  1
  F  F24  1  0.80699600  0.16816800  0.00000000  1
  F  F25  1  0.20925200  0.50000000  0.00000000  1
  F  F26  1  0.19716300  0.83314500  0.00000000  1
  F  F27  1  0.50435400  0.89853700  0.50000000  1
  F  F28  1  0.50192350  0.76792050  0.50000000  1
  F  F29  1  0.99716800  0.93446900  0.50000000  1
  F  F30  1  0.80699600  0.83183200  0.00000000  1
  F  F31  1  0.69716300  0.66685500  0.00000000  1
  F  F32  1  0.49716800  0.56553100  0.50000000  1
  F  F33  1  0.00192350  0.73207950  0.50000000  1
  F  F34  1  0.00435400  0.60146300  0.50000000  1
  F  F35  1  0.30699600  0.66816800  0.00000000  1
