# generated using pymatgen
data_Fe5O7F3
_symmetry_space_group_name_H-M   'P 1'
_cell_length_a   6.51137600
_cell_length_b   6.67517200
_cell_length_c   15.26308644
_cell_angle_alpha   90.00000000
_cell_angle_beta   90.03847351
_cell_angle_gamma   90.00000000
_symmetry_Int_Tables_number   1
_chemical_formula_structural   Fe5O7F3
_chemical_formula_sum   'Fe20 O28 F12'
_cell_volume   663.40310681
_cell_formula_units_Z   4
loop_
 _symmetry_equiv_pos_site_id
 _symmetry_equiv_pos_as_xyz
  1  'x, y, z'
loop_
 _atom_site_type_symbol
 _atom_site_label
 _atom_site_symmetry_multiplicity
 _atom_site_fract_x
 _atom_site_fract_y
 _atom_site_fract_z
 _atom_site_occupancy
  Fe  Fe0  1  0.02564250  0.98879950  0.09469800  1
  Fe  Fe1  1  0.97435750  0.98879950  0.90530200  1
  Fe  Fe2  1  0.50285600  0.48264100  0.70029700  1
  Fe  Fe3  1  0.50000000  0.48262300  0.50000000  1
  Fe  Fe4  1  0.49714400  0.48264100  0.29970300  1
  Fe  Fe5  1  0.50000000  0.99095200  0.00000000  1
  Fe  Fe6  1  0.50018400  0.01371900  0.59859400  1
  Fe  Fe7  1  0.50718800  0.02058000  0.79309600  1
  Fe  Fe8  1  0.49981600  0.01371900  0.40140600  1
  Fe  Fe9  1  0.49281200  0.02058000  0.20690400  1
  Fe  Fe10  1  0.52564250  0.48879950  0.09469800  1
  Fe  Fe11  1  0.47435750  0.48879950  0.90530200  1
  Fe  Fe12  1  0.00285600  0.98264100  0.70029700  1
  Fe  Fe13  1  0.00000000  0.98262300  0.50000000  1
  Fe  Fe14  1  0.99714400  0.98264100  0.29970300  1
  Fe  Fe15  1  0.00000000  0.49095200  0.00000000  1
  Fe  Fe16  1  0.00018400  0.51371900  0.59859400  1
  Fe  Fe17  1  0.00718800  0.52058000  0.79309600  1
  Fe  Fe18  1  0.99981600  0.51371900  0.40140600  1
  Fe  Fe19  1  0.99281200  0.52058000  0.20690400  1
  O  O20  1  0.50000000  0.29191700  0.00000000  1
  O  O21  1  0.49205550  0.31195150  0.80160700  1
  O  O22  1  0.50321950  0.30901650  0.59963900  1
  O  O23  1  0.49678050  0.30901650  0.40036100  1
  O  O24  1  0.50794450  0.31195150  0.19839300  1
  O  O25  1  0.67667650  0.99715950  0.90016300  1
  O  O26  1  0.69817200  0.00158300  0.69523600  1
  O  O27  1  0.69245550  0.99895950  0.49979100  1
  O  O28  1  0.69405150  0.00199550  0.30314600  1
  O  O29  1  0.32332350  0.99715950  0.09983700  1
  O  O30  1  0.30594850  0.00199550  0.69685400  1
  O  O31  1  0.30754450  0.99895950  0.50020900  1
  O  O32  1  0.30182800  0.00158300  0.30476400  1
  O  O33  1  0.50000000  0.69312800  0.00000000  1
  O  O34  1  0.00000000  0.79191700  0.00000000  1
  O  O35  1  0.99205550  0.81195150  0.80160700  1
  O  O36  1  0.00321950  0.80901650  0.59963900  1
  O  O37  1  0.99678050  0.80901650  0.40036100  1
  O  O38  1  0.00794450  0.81195150  0.19839300  1
  O  O39  1  0.17667650  0.49715950  0.90016300  1
  O  O40  1  0.19817200  0.50158300  0.69523600  1
  O  O41  1  0.19245550  0.49895950  0.49979100  1
  O  O42  1  0.19405150  0.50199550  0.30314600  1
  O  O43  1  0.82332350  0.49715950  0.09983700  1
  O  O44  1  0.80594850  0.50199550  0.69685400  1
  O  O45  1  0.80754450  0.49895950  0.50020900  1
  O  O46  1  0.80182800  0.50158300  0.30476400  1
  O  O47  1  0.00000000  0.19312800  0.00000000  1
  F  F48  1  0.70679450  0.99909150  0.10431000  1
  F  F49  1  0.29320550  0.99909150  0.89569000  1
  F  F50  1  0.50163800  0.69573200  0.59911600  1
  F  F51  1  0.49340050  0.69946150  0.79955000  1
  F  F52  1  0.50659950  0.69946150  0.20045000  1
  F  F53  1  0.49836200  0.69573200  0.40088400  1
  F  F54  1  0.20679450  0.49909150  0.10431000  1
  F  F55  1  0.79320550  0.49909150  0.89569000  1
  F  F56  1  0.00163800  0.19573200  0.59911600  1
  F  F57  1  0.99340050  0.19946150  0.79955000  1
  F  F58  1  0.00659950  0.19946150  0.20045000  1
  F  F59  1  0.99836200  0.19573200  0.40088400  1
