# generated using pymatgen
data_Li2V3CrO8
_symmetry_space_group_name_H-M   'P 1'
_cell_length_a   5.88948819
_cell_length_b   5.88948819
_cell_length_c   14.75316647
_cell_angle_alpha   90.00000000
_cell_angle_beta   90.00000000
_cell_angle_gamma   120.00000000
_symmetry_Int_Tables_number   1
_chemical_formula_structural   Li2V3CrO8
_chemical_formula_sum   'Li6 V9 Cr3 O24'
_cell_volume   443.17064465
_cell_formula_units_Z   3
loop_
 _symmetry_equiv_pos_site_id
 _symmetry_equiv_pos_as_xyz
  1  'x, y, z'
loop_
 _atom_site_type_symbol
 _atom_site_label
 _atom_site_symmetry_multiplicity
 _atom_site_fract_x
 _atom_site_fract_y
 _atom_site_fract_z
 _atom_site_occupancy
  Li  Li0  1  0.00000000  0.00000000  0.12451500  1
  Li  Li1  1  0.66666667  0.33333333  0.20881833  1
  Li  Li2  1  0.66666667  0.33333333  0.45784833  1
  Li  Li3  1  0.33333333  0.66666667  0.54215167  1
  Li  Li4  1  0.33333333  0.66666667  0.79118167  1
  Li  Li5  1  0.00000000  0.00000000  0.87548500  1
  V  V6  1  0.50000000  0.00000000  0.00000000  1
  V  V7  1  0.50000000  0.50000000  0.00000000  1
  V  V8  1  0.00000000  0.50000000  0.00000000  1
  V  V9  1  0.16666667  0.33333333  0.33333333  1
  V  V10  1  0.16666667  0.83333333  0.33333333  1
  V  V11  1  0.66666667  0.83333333  0.33333333  1
  V  V12  1  0.83333333  0.66666667  0.66666667  1
  V  V13  1  0.83333333  0.16666667  0.66666667  1
  V  V14  1  0.33333333  0.16666667  0.66666667  1
  Cr  Cr15  1  0.33333333  0.66666667  0.16666667  1
  Cr  Cr16  1  1.00000000  1.00000000  0.50000000  1
  Cr  Cr17  1  0.66666667  0.33333333  0.83333333  1
  O  O18  1  0.00000000  0.00000000  0.26102500  1
  O  O19  1  0.63741067  0.81870533  0.07802733  1
  O  O20  1  0.18129467  0.81870533  0.07802733  1
  O  O21  1  0.18129467  0.36258933  0.07802733  1
  O  O22  1  0.48537200  0.97074400  0.25530600  1
  O  O23  1  0.48537200  0.51462800  0.25530600  1
  O  O24  1  0.02925600  0.51462800  0.25530600  1
  O  O25  1  0.66666667  0.33333333  0.07230833  1
  O  O26  1  0.66666667  0.33333333  0.59435833  1
  O  O27  1  0.30407733  0.15203867  0.41136067  1
  O  O28  1  0.84796133  0.15203867  0.41136067  1
  O  O29  1  0.84796133  0.69592267  0.41136067  1
  O  O30  1  0.15203867  0.30407733  0.58863933  1
  O  O31  1  0.15203867  0.84796133  0.58863933  1
  O  O32  1  0.69592267  0.84796133  0.58863933  1
  O  O33  1  0.33333333  0.66666667  0.40564167  1
  O  O34  1  0.33333333  0.66666667  0.92769167  1
  O  O35  1  0.97074400  0.48537200  0.74469400  1
  O  O36  1  0.51462800  0.48537200  0.74469400  1
  O  O37  1  0.51462800  0.02925600  0.74469400  1
  O  O38  1  0.81870533  0.63741067  0.92197267  1
  O  O39  1  0.81870533  0.18129467  0.92197267  1
  O  O40  1  0.36258933  0.18129467  0.92197267  1
  O  O41  1  0.00000000  0.00000000  0.73897500  1
