# generated using pymatgen
data_LiMnPO4
_symmetry_space_group_name_H-M   'P 1'
_cell_length_a   4.82370800
_cell_length_b   6.48052300
_cell_length_c   10.30307200
_cell_angle_alpha   90.00000000
_cell_angle_beta   90.00000000
_cell_angle_gamma   90.00000000
_symmetry_Int_Tables_number   1
_chemical_formula_structural   LiMnPO4
_chemical_formula_sum   'Li4 Mn4 P4 O16'
_cell_volume   322.07558277
_cell_formula_units_Z   4
loop_
 _symmetry_equiv_pos_site_id
 _symmetry_equiv_pos_as_xyz
  1  'x, y, z'
loop_
 _atom_site_type_symbol
 _atom_site_label
 _atom_site_symmetry_multiplicity
 _atom_site_fract_x
 _atom_site_fract_y
 _atom_site_fract_z
 _atom_site_occupancy
  Li  Li0  1  0.00036700  0.25000000  0.71612000  1
  Li  Li1  1  0.50036700  0.75000000  0.78388000  1
  Li  Li2  1  0.49963300  0.25000000  0.21612000  1
  Li  Li3  1  0.99963300  0.75000000  0.28388000  1
  Mn  Mn4  1  0.50000000  0.00000000  0.50000000  1
  Mn  Mn5  1  0.00000000  0.50000000  0.00000000  1
  Mn  Mn6  1  0.50000000  0.50000000  0.50000000  1
  Mn  Mn7  1  0.00000000  0.00000000  0.00000000  1
  P  P8  1  0.92226800  0.75000000  0.59807800  1
  P  P9  1  0.42226800  0.25000000  0.90192200  1
  P  P10  1  0.57773200  0.75000000  0.09807800  1
  P  P11  1  0.07773200  0.25000000  0.40192200  1
  O  O12  1  0.20786000  0.25000000  0.54441200  1
  O  O13  1  0.70786000  0.75000000  0.95558800  1
  O  O14  1  0.29214000  0.25000000  0.04441200  1
  O  O15  1  0.79214000  0.75000000  0.45558800  1
  O  O16  1  0.24507100  0.75000000  0.59121500  1
  O  O17  1  0.74507100  0.25000000  0.90878500  1
  O  O18  1  0.25492900  0.75000000  0.09121500  1
  O  O19  1  0.75492900  0.25000000  0.40878500  1
  O  O20  1  0.80301200  0.55339800  0.66321100  1
  O  O21  1  0.80301200  0.94660200  0.66321100  1
  O  O22  1  0.30301200  0.05339800  0.83678900  1
  O  O23  1  0.30301200  0.44660200  0.83678900  1
  O  O24  1  0.69698800  0.55339800  0.16321100  1
  O  O25  1  0.69698800  0.94660200  0.16321100  1
  O  O26  1  0.19698800  0.05339800  0.33678900  1
  O  O27  1  0.19698800  0.44660200  0.33678900  1
