# generated using pymatgen
data_LiVCrO4
_symmetry_space_group_name_H-M   'P 1'
_cell_length_a   5.95195494
_cell_length_b   6.05458533
_cell_length_c   8.17909229
_cell_angle_alpha   90.00000000
_cell_angle_beta   90.00000000
_cell_angle_gamma   90.00000000
_symmetry_Int_Tables_number   1
_chemical_formula_structural   LiVCrO4
_chemical_formula_sum   'Li4 V4 Cr4 O16'
_cell_volume   294.74683324
_cell_formula_units_Z   4
loop_
 _symmetry_equiv_pos_site_id
 _symmetry_equiv_pos_as_xyz
  1  'x, y, z'
loop_
 _atom_site_type_symbol
 _atom_site_label
 _atom_site_symmetry_multiplicity
 _atom_site_fract_x
 _atom_site_fract_y
 _atom_site_fract_z
 _atom_site_occupancy
  Li  Li0  1  0.25000000  0.25000000  0.75000000  1
  Li  Li1  1  0.25000000  0.75000000  0.25000000  1
  Li  Li2  1  0.75000000  0.75000000  0.25000000  1
  Li  Li3  1  0.75000000  0.25000000  0.75000000  1
  V  V4  1  0.75000000  0.75000000  0.75000000  1
  V  V5  1  0.25000000  0.75000000  0.75000000  1
  V  V6  1  0.25000000  0.25000000  0.25000000  1
  V  V7  1  0.75000000  0.25000000  0.25000000  1
  Cr  Cr8  1  0.00000000  0.50000000  0.00000000  1
  Cr  Cr9  1  0.50000000  0.50000000  0.50000000  1
  Cr  Cr10  1  0.50000000  0.00000000  0.50000000  1
  Cr  Cr11  1  0.00000000  0.00000000  0.00000000  1
  O  O12  1  0.22348650  0.25000000  0.01733250  1
  O  O13  1  0.27651350  0.75000000  0.51733250  1
  O  O14  1  0.22348650  0.75000000  0.98266750  1
  O  O15  1  0.27651350  0.25000000  0.48266750  1
  O  O16  1  0.00000000  0.97847250  0.75614550  1
  O  O17  1  0.50000000  0.97847250  0.74385450  1
  O  O18  1  0.00000000  0.52152750  0.75614550  1
  O  O19  1  0.50000000  0.52152750  0.74385450  1
  O  O20  1  0.72348650  0.75000000  0.51733250  1
  O  O21  1  0.77651350  0.25000000  0.01733250  1
  O  O22  1  0.72348650  0.25000000  0.48266750  1
  O  O23  1  0.77651350  0.75000000  0.98266750  1
  O  O24  1  0.50000000  0.47847250  0.25614550  1
  O  O25  1  0.00000000  0.47847250  0.24385450  1
  O  O26  1  0.50000000  0.02152750  0.25614550  1
  O  O27  1  0.00000000  0.02152750  0.24385450  1
