# generated using pymatgen
data_Li4CoNi3O8
_symmetry_space_group_name_H-M   'P 1'
_cell_length_a   9.99614224
_cell_length_b   5.82533180
_cell_length_c   5.82868800
_cell_angle_alpha   90.00000000
_cell_angle_beta   125.52272285
_cell_angle_gamma   90.00000000
_symmetry_Int_Tables_number   1
_chemical_formula_structural   Li4CoNi3O8
_chemical_formula_sum   'Li8 Co2 Ni6 O16'
_cell_volume   276.24029504
_cell_formula_units_Z   2
loop_
 _symmetry_equiv_pos_site_id
 _symmetry_equiv_pos_as_xyz
  1  'x, y, z'
loop_
 _atom_site_type_symbol
 _atom_site_label
 _atom_site_symmetry_multiplicity
 _atom_site_fract_x
 _atom_site_fract_y
 _atom_site_fract_z
 _atom_site_occupancy
  Li  Li0  1  0.50000000  0.00000000  0.50000000  1
  Li  Li1  1  0.25000000  0.25000000  0.00000000  1
  Li  Li2  1  0.00000000  0.00000000  0.50000000  1
  Li  Li3  1  0.25000000  0.75000000  0.00000000  1
  Li  Li4  1  0.00000000  0.50000000  0.50000000  1
  Li  Li5  1  0.75000000  0.75000000  0.00000000  1
  Li  Li6  1  0.50000000  0.50000000  0.50000000  1
  Li  Li7  1  0.75000000  0.25000000  0.00000000  1
  Co  Co8  1  0.50000000  0.50000000  0.00000000  1
  Co  Co9  1  0.00000000  0.00000000  0.00000000  1
  Ni  Ni10  1  0.50000000  0.00000000  0.00000000  1
  Ni  Ni11  1  0.25000000  0.25000000  0.50000000  1
  Ni  Ni12  1  0.75000000  0.25000000  0.50000000  1
  Ni  Ni13  1  0.00000000  0.50000000  0.00000000  1
  Ni  Ni14  1  0.75000000  0.75000000  0.50000000  1
  Ni  Ni15  1  0.25000000  0.75000000  0.50000000  1
  O  O16  1  0.01088300  0.76872000  0.24111300  1
  O  O17  1  0.76178450  0.00000000  0.76894000  1
  O  O18  1  0.01088300  0.23128000  0.24111300  1
  O  O19  1  0.25304300  0.00000000  0.71732200  1
  O  O20  1  0.24695700  0.50000000  0.28267800  1
  O  O21  1  0.48911700  0.26872000  0.75888700  1
  O  O22  1  0.73821550  0.50000000  0.23106000  1
  O  O23  1  0.48911700  0.73128000  0.75888700  1
  O  O24  1  0.51088300  0.26872000  0.24111300  1
  O  O25  1  0.26178450  0.50000000  0.76894000  1
  O  O26  1  0.51088300  0.73128000  0.24111300  1
  O  O27  1  0.75304300  0.50000000  0.71732200  1
  O  O28  1  0.74695700  0.00000000  0.28267800  1
  O  O29  1  0.98911700  0.76872000  0.75888700  1
  O  O30  1  0.23821550  0.00000000  0.23106000  1
  O  O31  1  0.98911700  0.23128000  0.75888700  1
