# generated using pymatgen
data_Pm2AgRu
_symmetry_space_group_name_H-M   'P 1'
_cell_length_a   7.21061200
_cell_length_b   7.21061200
_cell_length_c   7.21061200
_cell_angle_alpha   90.00000000
_cell_angle_beta   90.00000000
_cell_angle_gamma   90.00000000
_symmetry_Int_Tables_number   1
_chemical_formula_structural   Pm2AgRu
_chemical_formula_sum   'Pm8 Ag4 Ru4'
_cell_volume   374.90081191
_cell_formula_units_Z   4
loop_
 _symmetry_equiv_pos_site_id
 _symmetry_equiv_pos_as_xyz
  1  'x, y, z'
loop_
 _atom_site_type_symbol
 _atom_site_label
 _atom_site_symmetry_multiplicity
 _atom_site_fract_x
 _atom_site_fract_y
 _atom_site_fract_z
 _atom_site_occupancy
  Pm  Pm0  1  0.25000000  0.75000000  0.75000000  1
  Pm  Pm1  1  0.25000000  0.25000000  0.75000000  1
  Pm  Pm2  1  0.25000000  0.25000000  0.25000000  1
  Pm  Pm3  1  0.25000000  0.75000000  0.25000000  1
  Pm  Pm4  1  0.75000000  0.75000000  0.25000000  1
  Pm  Pm5  1  0.75000000  0.25000000  0.25000000  1
  Pm  Pm6  1  0.75000000  0.25000000  0.75000000  1
  Pm  Pm7  1  0.75000000  0.75000000  0.75000000  1
  Ag  Ag8  1  0.50000000  0.00000000  0.00000000  1
  Ag  Ag9  1  0.50000000  0.50000000  0.50000000  1
  Ag  Ag10  1  0.00000000  0.00000000  0.50000000  1
  Ag  Ag11  1  0.00000000  0.50000000  0.00000000  1
  Ru  Ru12  1  0.00000000  0.00000000  0.00000000  1
  Ru  Ru13  1  0.00000000  0.50000000  0.50000000  1
  Ru  Ru14  1  0.50000000  0.00000000  0.50000000  1
  Ru  Ru15  1  0.50000000  0.50000000  0.00000000  1
