# generated using pymatgen
data_LiCo2OF3
_symmetry_space_group_name_H-M   'P 1'
_cell_length_a   6.12915500
_cell_length_b   6.13179200
_cell_length_c   8.52072498
_cell_angle_alpha   90.00000000
_cell_angle_beta   90.18617559
_cell_angle_gamma   90.00000000
_symmetry_Int_Tables_number   1
_chemical_formula_structural   LiCo2OF3
_chemical_formula_sum   'Li4 Co8 O4 F12'
_cell_volume   320.23019087
_cell_formula_units_Z   4
loop_
 _symmetry_equiv_pos_site_id
 _symmetry_equiv_pos_as_xyz
  1  'x, y, z'
loop_
 _atom_site_type_symbol
 _atom_site_label
 _atom_site_symmetry_multiplicity
 _atom_site_fract_x
 _atom_site_fract_y
 _atom_site_fract_z
 _atom_site_occupancy
  Li  Li0  1  0.01256800  0.50000000  0.49882600  1
  Li  Li1  1  0.49513500  0.50000000  0.50730500  1
  Li  Li2  1  0.24835900  0.73529200  0.74263300  1
  Li  Li3  1  0.24835900  0.26470800  0.74263300  1
  Co  Co4  1  0.98220300  0.00000000  0.00433500  1
  Co  Co5  1  0.78100800  0.25827500  0.24175600  1
  Co  Co6  1  0.78100800  0.74172500  0.24175600  1
  Co  Co7  1  0.74920800  0.00000000  0.62373800  1
  Co  Co8  1  0.74807000  0.50000000  0.88247300  1
  Co  Co9  1  0.51732800  0.00000000  0.99159000  1
  Co  Co10  1  0.22998500  0.00000000  0.37919600  1
  Co  Co11  1  0.23688400  0.50000000  0.13426700  1
  O  O12  1  0.98369600  0.00000000  0.24292500  1
  O  O13  1  0.99139100  0.50000000  0.26368600  1
  O  O14  1  0.74205400  0.23024300  0.00398900  1
  O  O15  1  0.74205400  0.76975700  0.00398900  1
  F  F16  1  0.74565400  0.26419000  0.49671400  1
  F  F17  1  0.74565400  0.73581000  0.49671400  1
  F  F18  1  0.51019100  0.00000000  0.25299800  1
  F  F19  1  0.51342200  0.50000000  0.26303100  1
  F  F20  1  0.47633600  0.00000000  0.74557500  1
  F  F21  1  0.48239100  0.50000000  0.74115800  1
  F  F22  1  0.25392600  0.73628200  0.51182800  1
  F  F23  1  0.25030600  0.76733300  0.98920900  1
  F  F24  1  0.25030600  0.23266700  0.98920900  1
  F  F25  1  0.25392600  0.26371800  0.51182800  1
  F  F26  1  0.01563100  0.00000000  0.75429200  1
  F  F27  1  0.01391800  0.50000000  0.74169300  1
