# generated using pymatgen
data_Mn4O7F
_symmetry_space_group_name_H-M   'P 1'
_cell_length_a   9.96168712
_cell_length_b   8.95645200
_cell_length_c   5.50849174
_cell_angle_alpha   90.00000000
_cell_angle_beta   90.13524835
_cell_angle_gamma   90.00000000
_symmetry_Int_Tables_number   1
_chemical_formula_structural   Mn4O7F
_chemical_formula_sum   'Mn16 O28 F4'
_cell_volume   491.47382413
_cell_formula_units_Z   4
loop_
 _symmetry_equiv_pos_site_id
 _symmetry_equiv_pos_as_xyz
  1  'x, y, z'
loop_
 _atom_site_type_symbol
 _atom_site_label
 _atom_site_symmetry_multiplicity
 _atom_site_fract_x
 _atom_site_fract_y
 _atom_site_fract_z
 _atom_site_occupancy
  Mn  Mn0  1  0.75299200  0.61987300  0.35223900  1
  Mn  Mn1  1  0.49523350  0.62130650  0.66985700  1
  Mn  Mn2  1  0.25299200  0.88012700  0.85223900  1
  Mn  Mn3  1  0.99523350  0.87869350  0.16985700  1
  Mn  Mn4  1  0.50011200  0.88244400  0.13051900  1
  Mn  Mn5  1  0.75127200  0.87255000  0.85552800  1
  Mn  Mn6  1  0.50011200  0.11755600  0.63051900  1
  Mn  Mn7  1  0.75127200  0.12745000  0.35552800  1
  Mn  Mn8  1  0.25299200  0.11987300  0.35223900  1
  Mn  Mn9  1  0.99523350  0.12130650  0.66985700  1
  Mn  Mn10  1  0.75299200  0.38012700  0.85223900  1
  Mn  Mn11  1  0.49523350  0.37869350  0.16985700  1
  Mn  Mn12  1  0.00011200  0.38244400  0.13051900  1
  Mn  Mn13  1  0.25127200  0.37255000  0.85552800  1
  Mn  Mn14  1  0.00011200  0.61755600  0.63051900  1
  Mn  Mn15  1  0.25127200  0.62745000  0.35552800  1
  O  O16  1  0.66290700  0.49025700  0.11450200  1
  O  O17  1  0.66290700  0.50974300  0.61450200  1
  O  O18  1  0.83721050  0.73798950  0.60759100  1
  O  O19  1  0.33642550  0.74370250  0.61488700  1
  O  O20  1  0.58548250  0.76099350  0.88914800  1
  O  O21  1  0.33721050  0.76201050  0.10759100  1
  O  O22  1  0.83642550  0.75629750  0.11488700  1
  O  O23  1  0.41382800  0.99623200  0.88531600  1
  O  O24  1  0.66487350  0.99401150  0.10650500  1
  O  O25  1  0.91401100  0.98426400  0.89556600  1
  O  O26  1  0.41382800  0.00376800  0.38531600  1
  O  O27  1  0.66487350  0.00598850  0.60650500  1
  O  O28  1  0.91401100  0.01573600  0.39556600  1
  O  O29  1  0.58548250  0.23900650  0.38914800  1
  O  O30  1  0.16290700  0.99025700  0.11450200  1
  O  O31  1  0.16290700  0.00974300  0.61450200  1
  O  O32  1  0.33721050  0.23798950  0.60759100  1
  O  O33  1  0.83642550  0.24370250  0.61488700  1
  O  O34  1  0.08548250  0.26099350  0.88914800  1
  O  O35  1  0.83721050  0.26201050  0.10759100  1
  O  O36  1  0.33642550  0.25629750  0.11488700  1
  O  O37  1  0.91382800  0.49623200  0.88531600  1
  O  O38  1  0.16487350  0.49401150  0.10650500  1
  O  O39  1  0.41401100  0.48426400  0.89556600  1
  O  O40  1  0.91382800  0.50376800  0.38531600  1
  O  O41  1  0.16487350  0.50598850  0.60650500  1
  O  O42  1  0.41401100  0.51573600  0.39556600  1
  O  O43  1  0.08548250  0.73900650  0.38914800  1
  F  F44  1  0.58565200  0.74778100  0.37834200  1
  F  F45  1  0.58565200  0.25221900  0.87834200  1
  F  F46  1  0.08565200  0.24778100  0.37834200  1
  F  F47  1  0.08565200  0.75221900  0.87834200  1
