# generated using pymatgen
data_V4O5F7
_symmetry_space_group_name_H-M   'P 1'
_cell_length_a   5.28489977
_cell_length_b   5.34791512
_cell_length_c   9.04865363
_cell_angle_alpha   105.65415138
_cell_angle_beta   90.33468365
_cell_angle_gamma   119.54846522
_symmetry_Int_Tables_number   1
_chemical_formula_structural   V4O5F7
_chemical_formula_sum   'V4 O5 F7'
_cell_volume   211.26311192
_cell_formula_units_Z   1
loop_
 _symmetry_equiv_pos_site_id
 _symmetry_equiv_pos_as_xyz
  1  'x, y, z'
loop_
 _atom_site_type_symbol
 _atom_site_label
 _atom_site_symmetry_multiplicity
 _atom_site_fract_x
 _atom_site_fract_y
 _atom_site_fract_z
 _atom_site_occupancy
  V  V0  1  0.47876400  0.73493162  0.73876646  1
  V  V1  1  0.02390044  0.53053783  0.48837890  1
  V  V2  1  0.47412801  0.26395430  0.25558515  1
  V  V3  1  0.96975483  0.01164838  0.98429808  1
  O  O4  1  0.17022472  0.36275195  0.88182867  1
  O  O5  1  0.68272920  0.84224737  0.91407485  1
  O  O6  1  0.25969362  0.40647377  0.33732083  1
  O  O7  1  0.18116195  0.86467714  0.37674914  1
  O  O8  1  0.32093900  0.65860129  0.59719296  1
  F  F9  1  0.67026726  0.32215644  0.41615749  1
  F  F10  1  0.24754964  0.91695952  0.84315465  1
  F  F11  1  0.83131569  0.12939503  0.62446652  1
  F  F12  1  0.74620296  0.57638082  0.67010580  1
  F  F13  1  0.34100743  0.16176668  0.08232618  1
  F  F14  1  0.84458953  0.63467277  0.12285942  1
  F  F15  1  0.75777072  0.08284708  0.16673491  1
