# generated using pymatgen
data_Mn6O5F7
_symmetry_space_group_name_H-M   'P 1'
_cell_length_a   4.72404604
_cell_length_b   5.73637296
_cell_length_c   15.64523446
_cell_angle_alpha   89.23732272
_cell_angle_beta   89.94197731
_cell_angle_gamma   86.95766173
_symmetry_Int_Tables_number   1
_chemical_formula_structural   Mn6O5F7
_chemical_formula_sum   'Mn12 O10 F14'
_cell_volume   423.33341367
_cell_formula_units_Z   2
loop_
 _symmetry_equiv_pos_site_id
 _symmetry_equiv_pos_as_xyz
  1  'x, y, z'
loop_
 _atom_site_type_symbol
 _atom_site_label
 _atom_site_symmetry_multiplicity
 _atom_site_fract_x
 _atom_site_fract_y
 _atom_site_fract_z
 _atom_site_occupancy
  Mn  Mn0  1  0.97318400  0.83499100  0.41737500  1
  Mn  Mn1  1  0.96246100  0.16889900  0.24561900  1
  Mn  Mn2  1  0.99817100  0.85243600  0.07745800  1
  Mn  Mn3  1  0.98279000  0.82041200  0.75249800  1
  Mn  Mn4  1  0.99385600  0.16267200  0.57599200  1
  Mn  Mn5  1  0.98106200  0.14187700  0.90997000  1
  Mn  Mn6  1  0.50101600  0.65196000  0.58676600  1
  Mn  Mn7  1  0.52486500  0.67059000  0.92180500  1
  Mn  Mn8  1  0.47794000  0.64262500  0.26028800  1
  Mn  Mn9  1  0.50533800  0.35188400  0.08190700  1
  Mn  Mn10  1  0.52446200  0.36157300  0.41568500  1
  Mn  Mn11  1  0.50507400  0.35713900  0.75681100  1
  O  O12  1  0.79162300  0.89593800  0.96911100  1
  O  O13  1  0.76972100  0.11742600  0.13149300  1
  O  O14  1  0.76991100  0.11464700  0.46709800  1
  O  O15  1  0.77470300  0.10788000  0.80497200  1
  O  O16  1  0.70900100  0.39257500  0.30872900  1
  O  O17  1  0.72327500  0.61045300  0.47901300  1
  O  O18  1  0.71929100  0.59869500  0.81606900  1
  O  O19  1  0.29885200  0.63016700  0.02848600  1
  O  O20  1  0.25994500  0.60616100  0.36414300  1
  O  O21  1  0.28078100  0.61325000  0.69515800  1
  F  F22  1  0.75501800  0.88918800  0.30210000  1
  F  F23  1  0.77370600  0.88808400  0.63786100  1
  F  F24  1  0.72648500  0.61412600  0.15238700  1
  F  F25  1  0.74663000  0.39487200  0.64302500  1
  F  F26  1  0.75332000  0.39633600  0.97958400  1
  F  F27  1  0.26164200  0.37640100  0.18672500  1
  F  F28  1  0.28841800  0.37572400  0.52409700  1
  F  F29  1  0.24667400  0.37319300  0.86770300  1
  F  F30  1  0.22068700  0.87182600  0.19307300  1
  F  F31  1  0.23648300  0.87858600  0.52772600  1
  F  F32  1  0.22213800  0.10746400  0.35588400  1
  F  F33  1  0.23954500  0.12934500  0.01473500  1
  F  F34  1  0.25335500  0.87427800  0.85641300  1
  F  F35  1  0.24857300  0.12632400  0.69223600  1
