# generated using pymatgen
data_Cs2KU2(Si2O7)2
_symmetry_space_group_name_H-M   'P 1'
_cell_length_a   8.54173800
_cell_length_b   11.80927800
_cell_length_c   7.69981600
_cell_angle_alpha   90.00000000
_cell_angle_beta   90.00000000
_cell_angle_gamma   90.00000000
_symmetry_Int_Tables_number   1
_chemical_formula_structural   Cs2KU2(Si2O7)2
_chemical_formula_sum   'Cs4 K2 U4 Si8 O28'
_cell_volume   776.69398116
_cell_formula_units_Z   2
loop_
 _symmetry_equiv_pos_site_id
 _symmetry_equiv_pos_as_xyz
  1  'x, y, z'
loop_
 _atom_site_type_symbol
 _atom_site_label
 _atom_site_symmetry_multiplicity
 _atom_site_fract_x
 _atom_site_fract_y
 _atom_site_fract_z
 _atom_site_occupancy
  Cs  Cs0  1  0.50000000  0.71674800  0.00000000  1
  Cs  Cs1  1  0.50000000  0.28325200  0.00000000  1
  Cs  Cs2  1  0.00000000  0.21674800  0.00000000  1
  Cs  Cs3  1  0.00000000  0.78325200  0.00000000  1
  K  K4  1  0.00000000  0.00000000  0.50000000  1
  K  K5  1  0.50000000  0.50000000  0.50000000  1
  U  U6  1  0.25000000  0.75000000  0.50000000  1
  U  U7  1  0.25000000  0.25000000  0.50000000  1
  U  U8  1  0.75000000  0.25000000  0.50000000  1
  U  U9  1  0.75000000  0.75000000  0.50000000  1
  Si  Si10  1  0.69144600  0.00000000  0.20545200  1
  Si  Si11  1  0.30855400  0.00000000  0.20545200  1
  Si  Si12  1  0.69144600  0.00000000  0.79454800  1
  Si  Si13  1  0.30855400  0.00000000  0.79454800  1
  Si  Si14  1  0.19144600  0.50000000  0.20545200  1
  Si  Si15  1  0.80855400  0.50000000  0.20545200  1
  Si  Si16  1  0.19144600  0.50000000  0.79454800  1
  Si  Si17  1  0.80855400  0.50000000  0.79454800  1
  O  O18  1  0.50000000  0.74780200  0.50000000  1
  O  O19  1  0.50000000  0.00000000  0.79757300  1
  O  O20  1  0.50000000  0.00000000  0.20242700  1
  O  O21  1  0.50000000  0.25219800  0.50000000  1
  O  O22  1  0.75922800  0.11473300  0.70513600  1
  O  O23  1  0.24077200  0.88526700  0.70513600  1
  O  O24  1  0.75922800  0.88526700  0.29486400  1
  O  O25  1  0.24077200  0.11473300  0.29486400  1
  O  O26  1  0.24077200  0.88526700  0.29486400  1
  O  O27  1  0.75922800  0.11473300  0.29486400  1
  O  O28  1  0.24077200  0.11473300  0.70513600  1
  O  O29  1  0.75922800  0.88526700  0.70513600  1
  O  O30  1  0.24880100  0.00000000  0.00000000  1
  O  O31  1  0.75119900  0.00000000  0.00000000  1
  O  O32  1  0.00000000  0.24780200  0.50000000  1
  O  O33  1  0.00000000  0.50000000  0.79757300  1
  O  O34  1  0.00000000  0.50000000  0.20242700  1
  O  O35  1  0.00000000  0.75219800  0.50000000  1
  O  O36  1  0.25922800  0.61473300  0.70513600  1
  O  O37  1  0.74077200  0.38526700  0.70513600  1
  O  O38  1  0.25922800  0.38526700  0.29486400  1
  O  O39  1  0.74077200  0.61473300  0.29486400  1
  O  O40  1  0.74077200  0.38526700  0.29486400  1
  O  O41  1  0.25922800  0.61473300  0.29486400  1
  O  O42  1  0.74077200  0.61473300  0.70513600  1
  O  O43  1  0.25922800  0.38526700  0.70513600  1
  O  O44  1  0.74880100  0.50000000  0.00000000  1
  O  O45  1  0.25119900  0.50000000  0.00000000  1
