# generated using pymatgen
data_Li5V3P8O29
_symmetry_space_group_name_H-M   'P 1'
_cell_length_a   16.97537600
_cell_length_b   9.81731600
_cell_length_c   13.91527978
_cell_angle_alpha   90.00000000
_cell_angle_beta   90.08062837
_cell_angle_gamma   90.00000000
_symmetry_Int_Tables_number   1
_chemical_formula_structural   Li5V3P8O29
_chemical_formula_sum   'Li20 V12 P32 O116'
_cell_volume   2319.01568177
_cell_formula_units_Z   4
loop_
 _symmetry_equiv_pos_site_id
 _symmetry_equiv_pos_as_xyz
  1  'x, y, z'
loop_
 _atom_site_type_symbol
 _atom_site_label
 _atom_site_symmetry_multiplicity
 _atom_site_fract_x
 _atom_site_fract_y
 _atom_site_fract_z
 _atom_site_occupancy
  Li  Li0  1  0.61317900  0.29000900  0.19295800  1
  Li  Li1  1  0.54721100  0.77590400  0.19185600  1
  Li  Li2  1  0.61480250  0.70990750  0.68738200  1
  Li  Li3  1  0.83830300  0.06512900  0.68739400  1
  Li  Li4  1  0.16169700  0.06512900  0.31260600  1
  Li  Li5  1  0.84103950  0.93080250  0.19094200  1
  Li  Li6  1  0.15896050  0.93080250  0.80905800  1
  Li  Li7  1  0.38682100  0.29000900  0.80704200  1
  Li  Li8  1  0.38519750  0.70990750  0.31261800  1
  Li  Li9  1  0.45278900  0.77590400  0.80814400  1
  Li  Li10  1  0.11317900  0.79000900  0.19295800  1
  Li  Li11  1  0.04721100  0.27590400  0.19185600  1
  Li  Li12  1  0.11480250  0.20990750  0.68738200  1
  Li  Li13  1  0.33830300  0.56512900  0.68739400  1
  Li  Li14  1  0.66169700  0.56512900  0.31260600  1
  Li  Li15  1  0.34103950  0.43080250  0.19094200  1
  Li  Li16  1  0.65896050  0.43080250  0.80905800  1
  Li  Li17  1  0.88682100  0.79000900  0.80704200  1
  Li  Li18  1  0.88519750  0.20990750  0.31261800  1
  Li  Li19  1  0.95278900  0.27590400  0.80814400  1
  V  V20  1  0.21686050  0.21680450  0.49802700  1
  V  V21  1  0.28427500  0.28391900  0.00060600  1
  V  V22  1  0.71572500  0.28391900  0.99939400  1
  V  V23  1  0.78313950  0.21680450  0.50197300  1
  V  V24  1  0.50000000  0.07289900  0.50000000  1
  V  V25  1  0.50000000  0.93722900  0.00000000  1
  V  V26  1  0.71686050  0.71680450  0.49802700  1
  V  V27  1  0.78427500  0.78391900  0.00060600  1
  V  V28  1  0.21572500  0.78391900  0.99939400  1
  V  V29  1  0.28313950  0.71680450  0.50197300  1
  V  V30  1  0.00000000  0.57289900  0.50000000  1
  V  V31  1  0.00000000  0.43722900  0.00000000  1
  P  P32  1  0.54195750  0.22813550  0.90570900  1
  P  P33  1  0.61516400  0.29653400  0.40898600  1
  P  P34  1  0.54320700  0.77665600  0.40757200  1
  P  P35  1  0.66540500  0.99836300  0.62290700  1
  P  P36  1  0.66683500  0.00063600  0.12292500  1
  P  P37  1  0.61553300  0.70478700  0.90789100  1
  P  P38  1  0.15963600  0.07208100  0.09191200  1
  P  P39  1  0.84036400  0.07208100  0.90808800  1
  P  P40  1  0.15884650  0.92933850  0.59281000  1
  P  P41  1  0.84115350  0.92933850  0.40719000  1
  P  P42  1  0.38483600  0.29653400  0.59101400  1
  P  P43  1  0.33459500  0.99836300  0.37709300  1
  P  P44  1  0.33316500  0.00063600  0.87707500  1
  P  P45  1  0.45804250  0.22813550  0.09429100  1
  P  P46  1  0.38446700  0.70478700  0.09210900  1
  P  P47  1  0.45679300  0.77665600  0.59242800  1
  P  P48  1  0.04195750  0.72813550  0.90570900  1
  P  P49  1  0.11516400  0.79653400  0.40898600  1
  P  P50  1  0.04320700  0.27665600  0.40757200  1
  P  P51  1  0.16540500  0.49836300  0.62290700  1
  P  P52  1  0.16683500  0.50063600  0.12292500  1
  P  P53  1  0.11553300  0.20478700  0.90789100  1
  P  P54  1  0.65963600  0.57208100  0.09191200  1
  P  P55  1  0.34036400  0.57208100  0.90808800  1
  P  P56  1  0.65884650  0.42933850  0.59281000  1
  P  P57  1  0.34115350  0.42933850  0.40719000  1
  P  P58  1  0.88483600  0.79653400  0.59101400  1
  P  P59  1  0.83459500  0.49836300  0.37709300  1
  P  P60  1  0.83316500  0.50063600  0.87707500  1
  P  P61  1  0.95804250  0.72813550  0.09429100  1
  P  P62  1  0.88446700  0.20478700  0.09210900  1
  P  P63  1  0.95679300  0.27665600  0.59242800  1
  O  O64  1  0.50369150  0.26118250  0.18112800  1
  O  O65  1  0.54161700  0.20324900  0.41374300  1
  O  O66  1  0.12228400  0.88527300  0.68417000  1
  O  O67  1  0.62586750  0.28951050  0.90840200  1
  O  O68  1  0.54730650  0.07072650  0.92681200  1
  O  O69  1  0.59204300  0.07315000  0.57517900  1
  O  O70  1  0.54737800  0.93091800  0.42550500  1
  O  O71  1  0.50139400  0.74225900  0.68215300  1
  O  O72  1  0.54041700  0.79603900  0.91024800  1
  O  O73  1  0.66236450  0.14956150  0.08276100  1
  O  O74  1  0.68944200  0.21136700  0.42501400  1
  O  O75  1  0.59167550  0.92028150  0.07962500  1
  O  O76  1  0.66437500  0.99890000  0.72992400  1
  O  O77  1  0.66394800  0.99585800  0.23001800  1
  O  O78  1  0.66267750  0.84816550  0.58288500  1
  O  O79  1  0.76009950  0.14149550  0.92556600  1
  O  O80  1  0.74262750  0.07026550  0.58414200  1
  O  O81  1  0.62552250  0.70987850  0.40694700  1
  O  O82  1  0.60438500  0.60503400  0.99991400  1
  O  O83  1  0.62053150  0.62137750  0.18222800  1
  O  O84  1  0.61922700  0.62128100  0.81760100  1
  O  O85  1  0.68960000  0.78996600  0.92592900  1
  O  O86  1  0.74340950  0.93044150  0.08256400  1
  O  O87  1  0.16906250  0.08683150  0.58782300  1
  O  O88  1  0.76052000  0.85848300  0.42651200  1
  O  O89  1  0.83093750  0.08683150  0.41217700  1
  O  O90  1  0.10455300  0.89701400  0.50020700  1
  O  O91  1  0.61884400  0.37995200  0.31868800  1
  O  O92  1  0.38077300  0.62128100  0.18239900  1
  O  O93  1  0.16815050  0.91486550  0.09072400  1
  O  O94  1  0.23990050  0.14149550  0.07443400  1
  O  O95  1  0.83184950  0.91486550  0.90927600  1
  O  O96  1  0.25737250  0.07026550  0.41585800  1
  O  O97  1  0.31055800  0.21136700  0.57498600  1
  O  O98  1  0.38115600  0.37995200  0.68131200  1
  O  O99  1  0.87771600  0.88527300  0.31583000  1
  O  O100  1  0.89544700  0.89701400  0.49979300  1
  O  O101  1  0.37413250  0.28951050  0.09159800  1
  O  O102  1  0.25659050  0.93044150  0.91743600  1
  O  O103  1  0.23948000  0.85848300  0.57348800  1
  O  O104  1  0.33763550  0.14956150  0.91723900  1
  O  O105  1  0.33605200  0.99585800  0.76998200  1
  O  O106  1  0.33562500  0.99890000  0.27007600  1
  O  O107  1  0.40795700  0.07315000  0.42482100  1
  O  O108  1  0.31040000  0.78996600  0.07407100  1
  O  O109  1  0.33732250  0.84816550  0.41711500  1
  O  O110  1  0.45838300  0.20324900  0.58625700  1
  O  O111  1  0.50000000  0.29141000  0.00000000  1
  O  O112  1  0.49630850  0.26118250  0.81887200  1
  O  O113  1  0.45269350  0.07072650  0.07318800  1
  O  O114  1  0.40832450  0.92028150  0.92037500  1
  O  O115  1  0.45262200  0.93091800  0.57449500  1
  O  O116  1  0.37447750  0.70987850  0.59305300  1
  O  O117  1  0.37946850  0.62137750  0.81777200  1
  O  O118  1  0.39561500  0.60503400  0.00008600  1
  O  O119  1  0.45958300  0.79603900  0.08975200  1
  O  O120  1  0.49860600  0.74225900  0.31784700  1
  O  O121  1  0.50000000  0.70945300  0.50000000  1
  O  O122  1  0.00369150  0.76118250  0.18112800  1
  O  O123  1  0.04161700  0.70324900  0.41374300  1
  O  O124  1  0.62228400  0.38527300  0.68417000  1
  O  O125  1  0.12586750  0.78951050  0.90840200  1
  O  O126  1  0.04730650  0.57072650  0.92681200  1
  O  O127  1  0.09204300  0.57315000  0.57517900  1
  O  O128  1  0.04737800  0.43091800  0.42550500  1
  O  O129  1  0.00139400  0.24225900  0.68215300  1
  O  O130  1  0.04041700  0.29603900  0.91024800  1
  O  O131  1  0.16236450  0.64956150  0.08276100  1
  O  O132  1  0.18944200  0.71136700  0.42501400  1
  O  O133  1  0.09167550  0.42028150  0.07962500  1
  O  O134  1  0.16437500  0.49890000  0.72992400  1
  O  O135  1  0.16394800  0.49585800  0.23001800  1
  O  O136  1  0.16267750  0.34816550  0.58288500  1
  O  O137  1  0.26009950  0.64149550  0.92556600  1
  O  O138  1  0.24262750  0.57026550  0.58414200  1
  O  O139  1  0.12552250  0.20987850  0.40694700  1
  O  O140  1  0.10438500  0.10503400  0.99991400  1
  O  O141  1  0.12053150  0.12137750  0.18222800  1
  O  O142  1  0.11922700  0.12128100  0.81760100  1
  O  O143  1  0.18960000  0.28996600  0.92592900  1
  O  O144  1  0.24340950  0.43044150  0.08256400  1
  O  O145  1  0.66906250  0.58683150  0.58782300  1
  O  O146  1  0.26052000  0.35848300  0.42651200  1
  O  O147  1  0.33093750  0.58683150  0.41217700  1
  O  O148  1  0.60455300  0.39701400  0.50020700  1
  O  O149  1  0.11884400  0.87995200  0.31868800  1
  O  O150  1  0.88077300  0.12128100  0.18239900  1
  O  O151  1  0.66815050  0.41486550  0.09072400  1
  O  O152  1  0.73990050  0.64149550  0.07443400  1
  O  O153  1  0.33184950  0.41486550  0.90927600  1
  O  O154  1  0.75737250  0.57026550  0.41585800  1
  O  O155  1  0.81055800  0.71136700  0.57498600  1
  O  O156  1  0.88115600  0.87995200  0.68131200  1
  O  O157  1  0.37771600  0.38527300  0.31583000  1
  O  O158  1  0.39544700  0.39701400  0.49979300  1
  O  O159  1  0.87413250  0.78951050  0.09159800  1
  O  O160  1  0.75659050  0.43044150  0.91743600  1
  O  O161  1  0.73948000  0.35848300  0.57348800  1
  O  O162  1  0.83763550  0.64956150  0.91723900  1
  O  O163  1  0.83605200  0.49585800  0.76998200  1
  O  O164  1  0.83562500  0.49890000  0.27007600  1
  O  O165  1  0.90795700  0.57315000  0.42482100  1
  O  O166  1  0.81040000  0.28996600  0.07407100  1
  O  O167  1  0.83732250  0.34816550  0.41711500  1
  O  O168  1  0.95838300  0.70324900  0.58625700  1
  O  O169  1  0.00000000  0.79141000  0.00000000  1
  O  O170  1  0.99630850  0.76118250  0.81887200  1
  O  O171  1  0.95269350  0.57072650  0.07318800  1
  O  O172  1  0.90832450  0.42028150  0.92037500  1
  O  O173  1  0.95262200  0.43091800  0.57449500  1
  O  O174  1  0.87447750  0.20987850  0.59305300  1
  O  O175  1  0.87946850  0.12137750  0.81777200  1
  O  O176  1  0.89561500  0.10503400  0.00008600  1
  O  O177  1  0.95958300  0.29603900  0.08975200  1
  O  O178  1  0.99860600  0.24225900  0.31784700  1
  O  O179  1  0.00000000  0.20945300  0.50000000  1
