# generated using pymatgen
data_Tl3Os3O10
_symmetry_space_group_name_H-M   'P 1'
_cell_length_a   7.38739200
_cell_length_b   7.38739200
_cell_length_c   31.36762600
_cell_angle_alpha   90.00000000
_cell_angle_beta   90.00000000
_cell_angle_gamma   90.00000000
_symmetry_Int_Tables_number   1
_chemical_formula_structural   Tl3Os3O10
_chemical_formula_sum   'Tl24 Os24 O80'
_cell_volume   1711.84303719
_cell_formula_units_Z   8
loop_
 _symmetry_equiv_pos_site_id
 _symmetry_equiv_pos_as_xyz
  1  'x, y, z'
loop_
 _atom_site_type_symbol
 _atom_site_label
 _atom_site_symmetry_multiplicity
 _atom_site_fract_x
 _atom_site_fract_y
 _atom_site_fract_z
 _atom_site_occupancy
  Tl  Tl0  1  0.23864800  0.00000000  0.03975200  1
  Tl  Tl1  1  0.76135200  0.00000000  0.03975200  1
  Tl  Tl2  1  0.50000000  0.25000000  0.12500000  1
  Tl  Tl3  1  0.50000000  0.75000000  0.12500000  1
  Tl  Tl4  1  0.23864800  0.50000000  0.21024800  1
  Tl  Tl5  1  0.76135200  0.50000000  0.21024800  1
  Tl  Tl6  1  0.00000000  0.26135200  0.28975200  1
  Tl  Tl7  1  0.00000000  0.73864800  0.28975200  1
  Tl  Tl8  1  0.75000000  0.00000000  0.37500000  1
  Tl  Tl9  1  0.25000000  0.00000000  0.37500000  1
  Tl  Tl10  1  0.50000000  0.73864800  0.46024800  1
  Tl  Tl11  1  0.50000000  0.26135200  0.46024800  1
  Tl  Tl12  1  0.73864800  0.50000000  0.53975200  1
  Tl  Tl13  1  0.26135200  0.50000000  0.53975200  1
  Tl  Tl14  1  0.00000000  0.75000000  0.62500000  1
  Tl  Tl15  1  0.00000000  0.25000000  0.62500000  1
  Tl  Tl16  1  0.73864800  0.00000000  0.71024800  1
  Tl  Tl17  1  0.26135200  0.00000000  0.71024800  1
  Tl  Tl18  1  0.50000000  0.76135200  0.78975200  1
  Tl  Tl19  1  0.50000000  0.23864800  0.78975200  1
  Tl  Tl20  1  0.25000000  0.50000000  0.87500000  1
  Tl  Tl21  1  0.75000000  0.50000000  0.87500000  1
  Tl  Tl22  1  0.00000000  0.23864800  0.96024800  1
  Tl  Tl23  1  0.00000000  0.76135200  0.96024800  1
  Os  Os24  1  0.74950450  0.50000000  0.04175650  1
  Os  Os25  1  0.25049550  0.50000000  0.04175650  1
  Os  Os26  1  0.00000000  0.25000000  0.12500000  1
  Os  Os27  1  0.00000000  0.75000000  0.12500000  1
  Os  Os28  1  0.25049550  0.00000000  0.20824350  1
  Os  Os29  1  0.74950450  0.00000000  0.20824350  1
  Os  Os30  1  0.50000000  0.75049550  0.29175650  1
  Os  Os31  1  0.50000000  0.24950450  0.29175650  1
  Os  Os32  1  0.75000000  0.50000000  0.37500000  1
  Os  Os33  1  0.25000000  0.50000000  0.37500000  1
  Os  Os34  1  0.00000000  0.75049550  0.45824350  1
  Os  Os35  1  0.00000000  0.24950450  0.45824350  1
  Os  Os36  1  0.24950450  0.00000000  0.54175650  1
  Os  Os37  1  0.75049550  0.00000000  0.54175650  1
  Os  Os38  1  0.50000000  0.75000000  0.62500000  1
  Os  Os39  1  0.50000000  0.25000000  0.62500000  1
  Os  Os40  1  0.75049550  0.50000000  0.70824350  1
  Os  Os41  1  0.24950450  0.50000000  0.70824350  1
  Os  Os42  1  0.00000000  0.25049550  0.79175650  1
  Os  Os43  1  0.00000000  0.74950450  0.79175650  1
  Os  Os44  1  0.25000000  0.00000000  0.87500000  1
  Os  Os45  1  0.75000000  0.00000000  0.87500000  1
  Os  Os46  1  0.50000000  0.25049550  0.95824350  1
  Os  Os47  1  0.50000000  0.74950450  0.95824350  1
  O  O48  1  0.50000000  0.50000000  0.06681000  1
  O  O49  1  0.19497600  0.69270700  0.08349300  1
  O  O50  1  0.19497600  0.30729300  0.08349300  1
  O  O51  1  0.80502400  0.30729300  0.08349300  1
  O  O52  1  0.80502400  0.69270700  0.08349300  1
  O  O53  1  0.50000000  0.00000000  0.08602700  1
  O  O54  1  0.00000000  0.00000000  0.10611200  1
  O  O55  1  0.00000000  0.50000000  0.14388800  1
  O  O56  1  0.50000000  0.50000000  0.16397300  1
  O  O57  1  0.80502400  0.80729300  0.16650700  1
  O  O58  1  0.80502400  0.19270700  0.16650700  1
  O  O59  1  0.19497600  0.80729300  0.16650700  1
  O  O60  1  0.19497600  0.19270700  0.16650700  1
  O  O61  1  0.50000000  0.00000000  0.18319000  1
  O  O62  1  0.00000000  0.00000000  0.22767000  1
  O  O63  1  0.68337200  0.81662800  0.25000000  1
  O  O64  1  0.68337200  0.18337200  0.25000000  1
  O  O65  1  0.31662800  0.18337200  0.25000000  1
  O  O66  1  0.31662800  0.81662800  0.25000000  1
  O  O67  1  0.50000000  0.50000000  0.27233000  1
  O  O68  1  0.50000000  0.00000000  0.31681000  1
  O  O69  1  0.30729300  0.30502400  0.33349300  1
  O  O70  1  0.69270700  0.69497600  0.33349300  1
  O  O71  1  0.00000000  0.00000000  0.33602700  1
  O  O72  1  0.30729300  0.69497600  0.33349300  1
  O  O73  1  0.69270700  0.30502400  0.33349300  1
  O  O74  1  0.00000000  0.50000000  0.35611200  1
  O  O75  1  0.50000000  0.50000000  0.39388800  1
  O  O76  1  0.50000000  0.00000000  0.41397300  1
  O  O77  1  0.19270700  0.69497600  0.41650700  1
  O  O78  1  0.19270700  0.30502400  0.41650700  1
  O  O79  1  0.80729300  0.69497600  0.41650700  1
  O  O80  1  0.80729300  0.30502400  0.41650700  1
  O  O81  1  0.00000000  0.00000000  0.43319000  1
  O  O82  1  0.00000000  0.50000000  0.47767000  1
  O  O83  1  0.68337200  0.31662800  0.00000000  1
  O  O84  1  0.31662800  0.68337200  0.00000000  1
  O  O85  1  0.68337200  0.68337200  0.00000000  1
  O  O86  1  0.81662800  0.81662800  0.50000000  1
  O  O87  1  0.00000000  0.50000000  0.02233000  1
  O  O88  1  0.00000000  0.00000000  0.56681000  1
  O  O89  1  0.69497600  0.19270700  0.58349300  1
  O  O90  1  0.69497600  0.80729300  0.58349300  1
  O  O91  1  0.30502400  0.80729300  0.58349300  1
  O  O92  1  0.30502400  0.19270700  0.58349300  1
  O  O93  1  0.00000000  0.50000000  0.58602700  1
  O  O94  1  0.50000000  0.50000000  0.60611200  1
  O  O95  1  0.50000000  0.00000000  0.64388800  1
  O  O96  1  0.00000000  0.00000000  0.66397300  1
  O  O97  1  0.30502400  0.30729300  0.66650700  1
  O  O98  1  0.30502400  0.69270700  0.66650700  1
  O  O99  1  0.69497600  0.30729300  0.66650700  1
  O  O100  1  0.69497600  0.69270700  0.66650700  1
  O  O101  1  0.00000000  0.50000000  0.68319000  1
  O  O102  1  0.50000000  0.50000000  0.72767000  1
  O  O103  1  0.18337200  0.31662800  0.75000000  1
  O  O104  1  0.18337200  0.68337200  0.75000000  1
  O  O105  1  0.81662800  0.68337200  0.75000000  1
  O  O106  1  0.81662800  0.31662800  0.75000000  1
  O  O107  1  0.00000000  0.00000000  0.77233000  1
  O  O108  1  0.00000000  0.50000000  0.81681000  1
  O  O109  1  0.80729300  0.80502400  0.83349300  1
  O  O110  1  0.19270700  0.19497600  0.83349300  1
  O  O111  1  0.50000000  0.50000000  0.83602700  1
  O  O112  1  0.80729300  0.19497600  0.83349300  1
  O  O113  1  0.19270700  0.80502400  0.83349300  1
  O  O114  1  0.50000000  0.00000000  0.85611200  1
  O  O115  1  0.00000000  0.00000000  0.89388800  1
  O  O116  1  0.00000000  0.50000000  0.91397300  1
  O  O117  1  0.69270700  0.19497600  0.91650700  1
  O  O118  1  0.69270700  0.80502400  0.91650700  1
  O  O119  1  0.30729300  0.19497600  0.91650700  1
  O  O120  1  0.30729300  0.80502400  0.91650700  1
  O  O121  1  0.50000000  0.50000000  0.93319000  1
  O  O122  1  0.50000000  0.00000000  0.97767000  1
  O  O123  1  0.18337200  0.81662800  0.50000000  1
  O  O124  1  0.81662800  0.18337200  0.50000000  1
  O  O125  1  0.18337200  0.18337200  0.50000000  1
  O  O126  1  0.31662800  0.31662800  0.00000000  1
  O  O127  1  0.50000000  0.00000000  0.52233000  1
