# generated using pymatgen
data_CoOF
_symmetry_space_group_name_H-M   'P 1'
_cell_length_a   6.34406200
_cell_length_b   6.36046400
_cell_length_c   12.24612207
_cell_angle_alpha   90.00000000
_cell_angle_beta   90.10372656
_cell_angle_gamma   90.00000000
_symmetry_Int_Tables_number   1
_chemical_formula_structural   CoOF
_chemical_formula_sum   'Co16 O16 F16'
_cell_volume   494.14464118
_cell_formula_units_Z   16
loop_
 _symmetry_equiv_pos_site_id
 _symmetry_equiv_pos_as_xyz
  1  'x, y, z'
loop_
 _atom_site_type_symbol
 _atom_site_label
 _atom_site_symmetry_multiplicity
 _atom_site_fract_x
 _atom_site_fract_y
 _atom_site_fract_z
 _atom_site_occupancy
  Co  Co0  1  0.02721000  0.00548500  0.37514600  1
  Co  Co1  1  0.97279000  0.00548500  0.62485400  1
  Co  Co2  1  0.02824050  0.01412850  0.87456500  1
  Co  Co3  1  0.97175950  0.01412850  0.12543500  1
  Co  Co4  1  0.50000000  0.03051100  0.50000000  1
  Co  Co5  1  0.50000000  0.98204600  0.00000000  1
  Co  Co6  1  0.49815900  0.98007600  0.75012800  1
  Co  Co7  1  0.50184100  0.98007600  0.24987200  1
  Co  Co8  1  0.52721000  0.50548500  0.37514600  1
  Co  Co9  1  0.47279000  0.50548500  0.62485400  1
  Co  Co10  1  0.52824050  0.51412850  0.87456500  1
  Co  Co11  1  0.47175950  0.51412850  0.12543500  1
  Co  Co12  1  0.00000000  0.53051100  0.50000000  1
  Co  Co13  1  0.00000000  0.48204600  0.00000000  1
  Co  Co14  1  0.99815900  0.48007600  0.75012800  1
  Co  Co15  1  0.00184100  0.48007600  0.24987200  1
  O  O16  1  0.50000000  0.69115200  0.00000000  1
  O  O17  1  0.50166850  0.68802150  0.74933100  1
  O  O18  1  0.49833150  0.68802150  0.25066900  1
  O  O19  1  0.68081550  0.00696750  0.62474000  1
  O  O20  1  0.68260800  0.99106200  0.12543400  1
  O  O21  1  0.31918450  0.00696750  0.37526000  1
  O  O22  1  0.31739200  0.99106200  0.87456600  1
  O  O23  1  0.50000000  0.32414800  0.50000000  1
  O  O24  1  0.00000000  0.19115200  0.00000000  1
  O  O25  1  0.00166850  0.18802150  0.74933100  1
  O  O26  1  0.99833150  0.18802150  0.25066900  1
  O  O27  1  0.18081550  0.50696750  0.62474000  1
  O  O28  1  0.18260800  0.49106200  0.12543400  1
  O  O29  1  0.81918450  0.50696750  0.37526000  1
  O  O30  1  0.81739200  0.49106200  0.87456600  1
  O  O31  1  0.00000000  0.82414800  0.50000000  1
  F  F32  1  0.50000000  0.72577600  0.50000000  1
  F  F33  1  0.72053100  0.00541200  0.37410800  1
  F  F34  1  0.72080750  0.99450750  0.87532400  1
  F  F35  1  0.27946900  0.00541200  0.62589200  1
  F  F36  1  0.27919250  0.99450750  0.12467600  1
  F  F37  1  0.50000000  0.29657800  0.00000000  1
  F  F38  1  0.50162500  0.28923500  0.75425900  1
  F  F39  1  0.49837500  0.28923500  0.24574100  1
  F  F40  1  0.00000000  0.22577600  0.50000000  1
  F  F41  1  0.22053100  0.50541200  0.37410800  1
  F  F42  1  0.22080750  0.49450750  0.87532400  1
  F  F43  1  0.77946900  0.50541200  0.62589200  1
  F  F44  1  0.77919250  0.49450750  0.12467600  1
  F  F45  1  0.00000000  0.79657800  0.00000000  1
  F  F46  1  0.00162500  0.78923500  0.75425900  1
  F  F47  1  0.99837500  0.78923500  0.24574100  1
