# generated using pymatgen
data_Fe5P6WO24
_symmetry_space_group_name_H-M   'P 1'
_cell_length_a   8.70699437
_cell_length_b   8.70699437
_cell_length_c   20.86592423
_cell_angle_alpha   90.00000000
_cell_angle_beta   90.00000000
_cell_angle_gamma   120.00000000
_symmetry_Int_Tables_number   1
_chemical_formula_structural   Fe5P6WO24
_chemical_formula_sum   'Fe15 P18 W3 O72'
_cell_volume   1369.95021394
_cell_formula_units_Z   3
loop_
 _symmetry_equiv_pos_site_id
 _symmetry_equiv_pos_as_xyz
  1  'x, y, z'
loop_
 _atom_site_type_symbol
 _atom_site_label
 _atom_site_symmetry_multiplicity
 _atom_site_fract_x
 _atom_site_fract_y
 _atom_site_fract_z
 _atom_site_occupancy
  Fe  Fe0  1  0.33333333  0.66666667  0.67211367  1
  Fe  Fe1  1  0.33333333  0.66666667  0.02356300  1
  Fe  Fe2  1  0.33333333  0.66666667  0.16729333  1
  Fe  Fe3  1  0.33333333  0.66666667  0.81142133  1
  Fe  Fe4  1  0.33333333  0.66666667  0.30957167  1
  Fe  Fe5  1  0.00000000  0.00000000  0.00544700  1
  Fe  Fe6  1  0.00000000  0.00000000  0.35689633  1
  Fe  Fe7  1  0.00000000  0.00000000  0.50062667  1
  Fe  Fe8  1  0.00000000  0.00000000  0.14475467  1
  Fe  Fe9  1  0.00000000  0.00000000  0.64290500  1
  Fe  Fe10  1  0.66666667  0.33333333  0.33878033  1
  Fe  Fe11  1  0.66666667  0.33333333  0.69022967  1
  Fe  Fe12  1  0.66666667  0.33333333  0.83396000  1
  Fe  Fe13  1  0.66666667  0.33333333  0.47808800  1
  Fe  Fe14  1  0.66666667  0.33333333  0.97623833  1
  P  P15  1  0.66494533  0.03639067  0.08125167  1
  P  P16  1  0.96360933  0.62855467  0.08125167  1
  P  P17  1  0.37144533  0.33505467  0.08125167  1
  P  P18  1  0.28834233  0.99515767  0.24985767  1
  P  P19  1  0.70681533  0.71165767  0.24985767  1
  P  P20  1  0.00484233  0.29318467  0.24985767  1
  P  P21  1  0.33161200  0.36972400  0.41458500  1
  P  P22  1  0.63027600  0.96188800  0.41458500  1
  P  P23  1  0.03811200  0.66838800  0.41458500  1
  P  P24  1  0.95500900  0.32849100  0.58319100  1
  P  P25  1  0.37348200  0.04499100  0.58319100  1
  P  P26  1  0.67150900  0.62651800  0.58319100  1
  P  P27  1  0.99827867  0.70305733  0.74791833  1
  P  P28  1  0.29694267  0.29522133  0.74791833  1
  P  P29  1  0.70477867  0.00172133  0.74791833  1
  P  P30  1  0.62167567  0.66182433  0.91652433  1
  P  P31  1  0.04014867  0.37832433  0.91652433  1
  P  P32  1  0.33817567  0.95985133  0.91652433  1
  W  W33  1  0.33333333  0.66666667  0.52440367  1
  W  W34  1  0.00000000  0.00000000  0.85773700  1
  W  W35  1  0.66666667  0.33333333  0.19107033  1
  O  O36  1  0.53296033  0.85649667  0.35585367  1
  O  O37  1  0.14350333  0.67646367  0.35585367  1
  O  O38  1  0.32353633  0.46703967  0.35585367  1
  O  O39  1  0.83269667  0.01785833  0.07630233  1
  O  O40  1  0.34251067  0.47744433  0.47714333  1
  O  O41  1  0.49786733  0.85306967  0.09204067  1
  O  O42  1  0.98214167  0.81483833  0.07630233  1
  O  O43  1  0.14693033  0.64479767  0.09204067  1
  O  O44  1  0.19960467  0.00809333  0.18886033  1
  O  O45  1  0.35520233  0.50213267  0.09204067  1
  O  O46  1  0.48460267  0.16499533  0.25565433  1
  O  O47  1  0.80848867  0.80039533  0.18886033  1
  O  O48  1  0.52255567  0.86506633  0.47714333  1
  O  O49  1  0.18516167  0.16730333  0.07630233  1
  O  O50  1  0.31658800  0.83383900  0.24270000  1
  O  O51  1  0.13493367  0.65748933  0.47714333  1
  O  O52  1  0.51725100  0.68341200  0.24270000  1
  O  O53  1  0.68039267  0.51539733  0.25565433  1
  O  O54  1  0.16616100  0.48274900  0.24270000  1
  O  O55  1  0.99190667  0.19151133  0.18886033  1
  O  O56  1  0.83500467  0.31960733  0.25565433  1
  O  O57  1  0.33335033  0.86282067  0.97755467  1
  O  O58  1  0.52947033  0.66664967  0.97755467  1
  O  O59  1  0.13717933  0.47052967  0.97755467  1
  O  O60  1  0.19962700  0.18983000  0.68918700  1
  O  O61  1  0.81017000  0.00979700  0.68918700  1
  O  O62  1  0.99020300  0.80037300  0.68918700  1
  O  O63  1  0.49936333  0.35119167  0.40963567  1
  O  O64  1  0.00917733  0.81077767  0.81047667  1
  O  O65  1  0.16453400  0.18640300  0.42537400  1
  O  O66  1  0.64880833  0.14817167  0.40963567  1
  O  O67  1  0.81359700  0.97813100  0.42537400  1
  O  O68  1  0.86627133  0.34142667  0.52219367  1
  O  O69  1  0.02186900  0.83546600  0.42537400  1
  O  O70  1  0.15126933  0.49832867  0.58898767  1
  O  O71  1  0.47515533  0.13372867  0.52219367  1
  O  O72  1  0.18922233  0.19839967  0.81047667  1
  O  O73  1  0.85182833  0.50063667  0.40963567  1
  O  O74  1  0.98325467  0.16717233  0.57603333  1
  O  O75  1  0.80160033  0.99082267  0.81047667  1
  O  O76  1  0.18391767  0.01674533  0.57603333  1
  O  O77  1  0.34705933  0.84873067  0.58898767  1
  O  O78  1  0.83282767  0.81608233  0.57603333  1
  O  O79  1  0.65857333  0.52484467  0.52219367  1
  O  O80  1  0.50167133  0.65294067  0.58898767  1
  O  O81  1  0.00001700  0.19615400  0.31088800  1
  O  O82  1  0.19613700  0.99998300  0.31088800  1
  O  O83  1  0.80384600  0.80386300  0.31088800  1
  O  O84  1  0.86629367  0.52316333  0.02252033  1
  O  O85  1  0.47683667  0.34313033  0.02252033  1
  O  O86  1  0.65686967  0.13370633  0.02252033  1
  O  O87  1  0.16603000  0.68452500  0.74296900  1
  O  O88  1  0.67584400  0.14411100  0.14381000  1
  O  O89  1  0.83120067  0.51973633  0.75870733  1
  O  O90  1  0.31547500  0.48150500  0.74296900  1
  O  O91  1  0.48026367  0.31146433  0.75870733  1
  O  O92  1  0.53293800  0.67476000  0.85552700  1
  O  O93  1  0.68853567  0.16879933  0.75870733  1
  O  O94  1  0.81793600  0.83166200  0.92232100  1
  O  O95  1  0.14182200  0.46706200  0.85552700  1
  O  O96  1  0.85588900  0.53173300  0.14381000  1
  O  O97  1  0.51849500  0.83397000  0.74296900  1
  O  O98  1  0.64992133  0.50050567  0.90936667  1
  O  O99  1  0.46826700  0.32415600  0.14381000  1
  O  O100  1  0.85058433  0.35007867  0.90936667  1
  O  O101  1  0.01372600  0.18206400  0.92232100  1
  O  O102  1  0.49949433  0.14941567  0.90936667  1
  O  O103  1  0.32524000  0.85817800  0.85552700  1
  O  O104  1  0.16833800  0.98627400  0.92232100  1
  O  O105  1  0.66668367  0.52948733  0.64422133  1
  O  O106  1  0.86280367  0.33331633  0.64422133  1
  O  O107  1  0.47051267  0.13719633  0.64422133  1
