# generated using pymatgen
data_Li5Mn6(BO3)6
_symmetry_space_group_name_H-M   'P 1'
_cell_length_a   16.63783800
_cell_length_b   6.36321600
_cell_length_c   14.28378686
_cell_angle_alpha   90.00000000
_cell_angle_beta   90.14359874
_cell_angle_gamma   90.00000000
_symmetry_Int_Tables_number   1
_chemical_formula_structural   Li5Mn6(BO3)6
_chemical_formula_sum   'Li20 Mn24 B24 O72'
_cell_volume   1512.22200762
_cell_formula_units_Z   4
loop_
 _symmetry_equiv_pos_site_id
 _symmetry_equiv_pos_as_xyz
  1  'x, y, z'
loop_
 _atom_site_type_symbol
 _atom_site_label
 _atom_site_symmetry_multiplicity
 _atom_site_fract_x
 _atom_site_fract_y
 _atom_site_fract_z
 _atom_site_occupancy
  Li  Li0  1  0.89493800  0.50000000  0.99080800  1
  Li  Li1  1  0.92025100  0.50000000  0.35925500  1
  Li  Li2  1  0.92061200  0.00000000  0.35967600  1
  Li  Li3  1  0.93384900  0.00000000  0.64911300  1
  Li  Li4  1  0.93389200  0.50000000  0.64987200  1
  Li  Li5  1  0.64450300  0.00000000  0.49119100  1
  Li  Li6  1  0.67024800  0.00000000  0.85910100  1
  Li  Li7  1  0.67061300  0.50000000  0.85990000  1
  Li  Li8  1  0.68347300  0.00000000  0.14871600  1
  Li  Li9  1  0.68424300  0.50000000  0.15038500  1
  Li  Li10  1  0.39493800  0.00000000  0.99080800  1
  Li  Li11  1  0.42025100  0.00000000  0.35925500  1
  Li  Li12  1  0.42061200  0.50000000  0.35967600  1
  Li  Li13  1  0.43384900  0.50000000  0.64911300  1
  Li  Li14  1  0.43389200  0.00000000  0.64987200  1
  Li  Li15  1  0.14450300  0.50000000  0.49119100  1
  Li  Li16  1  0.17024800  0.50000000  0.85910100  1
  Li  Li17  1  0.17061300  0.00000000  0.85990000  1
  Li  Li18  1  0.18347300  0.50000000  0.14871600  1
  Li  Li19  1  0.18424300  0.00000000  0.15038500  1
  Mn  Mn20  1  0.81292550  0.74751350  0.50571700  1
  Mn  Mn21  1  0.81292550  0.25248650  0.50571700  1
  Mn  Mn22  1  0.83973050  0.75193550  0.81813200  1
  Mn  Mn23  1  0.83973050  0.24806450  0.81813200  1
  Mn  Mn24  1  0.84716400  0.24683800  0.17536600  1
  Mn  Mn25  1  0.84716400  0.75316200  0.17536600  1
  Mn  Mn26  1  0.56300550  0.25218850  0.00573900  1
  Mn  Mn27  1  0.56300550  0.74781150  0.00573900  1
  Mn  Mn28  1  0.58989800  0.25214800  0.31817500  1
  Mn  Mn29  1  0.58989800  0.74785200  0.31817500  1
  Mn  Mn30  1  0.59720950  0.25330850  0.67539100  1
  Mn  Mn31  1  0.59720950  0.74669150  0.67539100  1
  Mn  Mn32  1  0.31292550  0.24751350  0.50571700  1
  Mn  Mn33  1  0.31292550  0.75248650  0.50571700  1
  Mn  Mn34  1  0.33973050  0.25193550  0.81813200  1
  Mn  Mn35  1  0.33973050  0.74806450  0.81813200  1
  Mn  Mn36  1  0.34716400  0.74683800  0.17536600  1
  Mn  Mn37  1  0.34716400  0.25316200  0.17536600  1
  Mn  Mn38  1  0.06300550  0.75218850  0.00573900  1
  Mn  Mn39  1  0.06300550  0.24781150  0.00573900  1
  Mn  Mn40  1  0.08989800  0.75214800  0.31817500  1
  Mn  Mn41  1  0.08989800  0.24785200  0.31817500  1
  Mn  Mn42  1  0.09720950  0.75330850  0.67539100  1
  Mn  Mn43  1  0.09720950  0.24669150  0.67539100  1
  B  B44  1  0.74784550  0.74630950  0.99978000  1
  B  B45  1  0.74784550  0.25369050  0.99978000  1
  B  B46  1  0.75019900  0.00000000  0.33259600  1
  B  B47  1  0.75339600  0.50000000  0.33060500  1
  B  B48  1  0.75041900  0.00000000  0.66706100  1
  B  B49  1  0.75116300  0.50000000  0.67002800  1
  B  B50  1  0.99780250  0.74588550  0.49985900  1
  B  B51  1  0.99780250  0.25411450  0.49985900  1
  B  B52  1  0.50077900  0.00000000  0.16682300  1
  B  B53  1  0.50074200  0.50000000  0.17021500  1
  B  B54  1  0.50128600  0.00000000  0.83134300  1
  B  B55  1  0.50210900  0.50000000  0.83191700  1
  B  B56  1  0.24784550  0.24630950  0.99978000  1
  B  B57  1  0.24784550  0.75369050  0.99978000  1
  B  B58  1  0.25019900  0.50000000  0.33259600  1
  B  B59  1  0.25339600  0.00000000  0.33060500  1
  B  B60  1  0.25041900  0.50000000  0.66706100  1
  B  B61  1  0.25116300  0.00000000  0.67002800  1
  B  B62  1  0.49780250  0.24588550  0.49985900  1
  B  B63  1  0.49780250  0.75411450  0.49985900  1
  B  B64  1  0.00077900  0.50000000  0.16682300  1
  B  B65  1  0.00074200  0.00000000  0.17021500  1
  B  B66  1  0.00128600  0.50000000  0.83134300  1
  B  B67  1  0.00210900  0.00000000  0.83191700  1
  O  O68  1  0.76614000  0.50000000  0.42602300  1
  O  O69  1  0.75584600  0.00000000  0.42990100  1
  O  O70  1  0.76196000  0.50000000  0.76698600  1
  O  O71  1  0.75985200  0.00000000  0.76362000  1
  O  O72  1  0.81774900  0.00000000  0.60858800  1
  O  O73  1  0.81830600  0.50000000  0.61076900  1
  O  O74  1  0.81903300  0.00000000  0.27839200  1
  O  O75  1  0.82016300  0.50000000  0.27183600  1
  O  O76  1  0.82183250  0.73222450  0.95843800  1
  O  O77  1  0.82183250  0.26777550  0.95843800  1
  O  O78  1  0.92450700  0.00000000  0.13294800  1
  O  O79  1  0.92461400  0.50000000  0.12586800  1
  O  O80  1  0.92559700  0.00000000  0.79263200  1
  O  O81  1  0.92571100  0.50000000  0.79041000  1
  O  O82  1  0.92761650  0.75240350  0.44529200  1
  O  O83  1  0.92761650  0.24759650  0.44529200  1
  O  O84  1  0.99095200  0.25048700  0.59774400  1
  O  O85  1  0.99095200  0.74951300  0.59774400  1
  O  O86  1  0.51460600  0.50000000  0.92725200  1
  O  O87  1  0.50723200  0.00000000  0.92876200  1
  O  O88  1  0.51001600  0.00000000  0.26321500  1
  O  O89  1  0.51180900  0.50000000  0.26732800  1
  O  O90  1  0.56819400  0.00000000  0.10816600  1
  O  O91  1  0.56791100  0.50000000  0.11112100  1
  O  O92  1  0.56999800  0.00000000  0.77648100  1
  O  O93  1  0.56906500  0.50000000  0.77379700  1
  O  O94  1  0.57171650  0.23158450  0.45845700  1
  O  O95  1  0.57171650  0.76841550  0.45845700  1
  O  O96  1  0.67393400  0.00000000  0.62680700  1
  O  O97  1  0.67515400  0.50000000  0.63218000  1
  O  O98  1  0.67474900  0.00000000  0.29081400  1
  O  O99  1  0.67673300  0.50000000  0.29215700  1
  O  O100  1  0.67768550  0.75248150  0.94512500  1
  O  O101  1  0.67768550  0.24751850  0.94512500  1
  O  O102  1  0.74090800  0.24983200  0.09761900  1
  O  O103  1  0.74090800  0.75016800  0.09761900  1
  O  O104  1  0.26614000  0.00000000  0.42602300  1
  O  O105  1  0.25584600  0.50000000  0.42990100  1
  O  O106  1  0.26196000  0.00000000  0.76698600  1
  O  O107  1  0.25985200  0.50000000  0.76362000  1
  O  O108  1  0.31774900  0.50000000  0.60858800  1
  O  O109  1  0.31830600  0.00000000  0.61076900  1
  O  O110  1  0.31903300  0.50000000  0.27839200  1
  O  O111  1  0.32016300  0.00000000  0.27183600  1
  O  O112  1  0.32183250  0.23222450  0.95843800  1
  O  O113  1  0.32183250  0.76777550  0.95843800  1
  O  O114  1  0.42450700  0.50000000  0.13294800  1
  O  O115  1  0.42461400  0.00000000  0.12586800  1
  O  O116  1  0.42559700  0.50000000  0.79263200  1
  O  O117  1  0.42571100  0.00000000  0.79041000  1
  O  O118  1  0.42761650  0.25240350  0.44529200  1
  O  O119  1  0.42761650  0.74759650  0.44529200  1
  O  O120  1  0.49095200  0.75048700  0.59774400  1
  O  O121  1  0.49095200  0.24951300  0.59774400  1
  O  O122  1  0.01460600  0.00000000  0.92725200  1
  O  O123  1  0.00723200  0.50000000  0.92876200  1
  O  O124  1  0.01001600  0.50000000  0.26321500  1
  O  O125  1  0.01180900  0.00000000  0.26732800  1
  O  O126  1  0.06819400  0.50000000  0.10816600  1
  O  O127  1  0.06791100  0.00000000  0.11112100  1
  O  O128  1  0.06999800  0.50000000  0.77648100  1
  O  O129  1  0.06906500  0.00000000  0.77379700  1
  O  O130  1  0.07171650  0.73158450  0.45845700  1
  O  O131  1  0.07171650  0.26841550  0.45845700  1
  O  O132  1  0.17393400  0.50000000  0.62680700  1
  O  O133  1  0.17515400  0.00000000  0.63218000  1
  O  O134  1  0.17474900  0.50000000  0.29081400  1
  O  O135  1  0.17673300  0.00000000  0.29215700  1
  O  O136  1  0.17768550  0.25248150  0.94512500  1
  O  O137  1  0.17768550  0.74751850  0.94512500  1
  O  O138  1  0.24090800  0.74983200  0.09761900  1
  O  O139  1  0.24090800  0.25016800  0.09761900  1
