# generated using pymatgen
data_TiMnH12(OF)6
_symmetry_space_group_name_H-M   'P 1'
_cell_length_a   9.93168662
_cell_length_b   9.93168662
_cell_length_c   9.81281403
_cell_angle_alpha   90.00000000
_cell_angle_beta   90.00000000
_cell_angle_gamma   120.00000000
_symmetry_Int_Tables_number   1
_chemical_formula_structural   TiMnH12(OF)6
_chemical_formula_sum   'Ti3 Mn3 H36 O18 F18'
_cell_volume   838.24354056
_cell_formula_units_Z   3
loop_
 _symmetry_equiv_pos_site_id
 _symmetry_equiv_pos_as_xyz
  1  'x, y, z'
loop_
 _atom_site_type_symbol
 _atom_site_label
 _atom_site_symmetry_multiplicity
 _atom_site_fract_x
 _atom_site_fract_y
 _atom_site_fract_z
 _atom_site_occupancy
  Ti  Ti0  1  0.66666667  0.33333333  0.83333333  1
  Ti  Ti1  1  0.33333333  0.66666667  0.16666667  1
  Ti  Ti2  1  0.00000000  1.00000000  0.50000000  1
  Mn  Mn3  1  0.33333333  0.66666667  0.66666667  1
  Mn  Mn4  1  1.00000000  0.00000000  0.00000000  1
  Mn  Mn5  1  0.66666667  0.33333333  0.33333333  1
  H  H6  1  0.75306633  0.21922367  0.55684767  1
  H  H7  1  0.58026700  0.44744300  0.10981900  1
  H  H8  1  0.30938167  0.14144733  0.90504533  1
  H  H9  1  0.47478067  0.49873233  0.76162133  1
  H  H10  1  0.83206567  0.69061833  0.90504533  1
  H  H11  1  0.86717600  0.41973300  0.10981900  1
  H  H12  1  0.55255700  0.13282400  0.10981900  1
  H  H13  1  0.78077633  0.53384267  0.55684767  1
  H  H14  1  0.46615733  0.24693367  0.55684767  1
  H  H15  1  0.50126767  0.97604833  0.76162133  1
  H  H16  1  0.85855267  0.16793433  0.90504533  1
  H  H17  1  0.02395167  0.52521933  0.76162133  1
  H  H18  1  0.41973300  0.55255700  0.89018100  1
  H  H19  1  0.24693367  0.78077633  0.44315233  1
  H  H20  1  0.97604833  0.47478067  0.23837867  1
  H  H21  1  0.14144733  0.83206567  0.09495467  1
  H  H22  1  0.49873233  0.02395167  0.23837867  1
  H  H23  1  0.53384267  0.75306633  0.44315233  1
  H  H24  1  0.21922367  0.46615733  0.44315233  1
  H  H25  1  0.44744300  0.86717600  0.89018100  1
  H  H26  1  0.13282400  0.58026700  0.89018100  1
  H  H27  1  0.16793433  0.30938167  0.09495467  1
  H  H28  1  0.52521933  0.50126767  0.23837867  1
  H  H29  1  0.69061833  0.85855267  0.09495467  1
  H  H30  1  0.08639967  0.88589033  0.22351433  1
  H  H31  1  0.91360033  0.11410967  0.77648567  1
  H  H32  1  0.64271500  0.80811400  0.57171200  1
  H  H33  1  0.80811400  0.16539900  0.42828800  1
  H  H34  1  0.16539900  0.35728500  0.57171200  1
  H  H35  1  0.20050933  0.08639967  0.77648567  1
  H  H36  1  0.88589033  0.79949067  0.77648567  1
  H  H37  1  0.11410967  0.20050933  0.22351433  1
  H  H38  1  0.79949067  0.91360033  0.22351433  1
  H  H39  1  0.83460100  0.64271500  0.42828800  1
  H  H40  1  0.19188600  0.83460100  0.57171200  1
  H  H41  1  0.35728500  0.19188600  0.42828800  1
  O  O42  1  0.45747933  0.58188767  0.79622667  1
  O  O43  1  0.20892500  0.12414600  0.87044000  1
  O  O44  1  0.91522100  0.79107500  0.87044000  1
  O  O45  1  0.41811233  0.87559167  0.79622667  1
  O  O46  1  0.12440833  0.54252067  0.79622667  1
  O  O47  1  0.87585400  0.08477900  0.87044000  1
  O  O48  1  0.12414600  0.91522100  0.12956000  1
  O  O49  1  0.87559167  0.45747933  0.20377333  1
  O  O50  1  0.58188767  0.12440833  0.20377333  1
  O  O51  1  0.08477900  0.20892500  0.12956000  1
  O  O52  1  0.79107500  0.87585400  0.12956000  1
  O  O53  1  0.54252067  0.41811233  0.20377333  1
  O  O54  1  0.79081267  0.24855433  0.46289333  1
  O  O55  1  0.54225833  0.79081267  0.53710667  1
  O  O56  1  0.24855433  0.45774167  0.53710667  1
  O  O57  1  0.75144567  0.54225833  0.46289333  1
  O  O58  1  0.45774167  0.20918733  0.46289333  1
  O  O59  1  0.20918733  0.75144567  0.53710667  1
  F  F60  1  0.67981833  0.49446367  0.94624367  1
  F  F61  1  0.50553633  0.18535467  0.94624367  1
  F  F62  1  0.51868800  0.34648500  0.72042300  1
  F  F63  1  0.81464533  0.32018167  0.94624367  1
  F  F64  1  0.82779700  0.48131200  0.72042300  1
  F  F65  1  0.65351500  0.17220300  0.72042300  1
  F  F66  1  0.34648500  0.82779700  0.27957700  1
  F  F67  1  0.17220300  0.51868800  0.27957700  1
  F  F68  1  0.18535467  0.67981833  0.05375633  1
  F  F69  1  0.48131200  0.65351500  0.27957700  1
  F  F70  1  0.49446367  0.81464533  0.05375633  1
  F  F71  1  0.32018167  0.50553633  0.05375633  1
  F  F72  1  0.01315167  0.16113033  0.61291033  1
  F  F73  1  0.83886967  0.85202133  0.61291033  1
  F  F74  1  0.85202133  0.01315167  0.38708967  1
  F  F75  1  0.14797867  0.98684833  0.61291033  1
  F  F76  1  0.16113033  0.14797867  0.38708967  1
  F  F77  1  0.98684833  0.83886967  0.38708967  1
