# generated using pymatgen
data_LiNi(PO3)4
_symmetry_space_group_name_H-M   'P 1'
_cell_length_a   9.54450200
_cell_length_b   11.50534000
_cell_length_c   18.24461700
_cell_angle_alpha   90.00000000
_cell_angle_beta   90.00000000
_cell_angle_gamma   90.00000000
_symmetry_Int_Tables_number   1
_chemical_formula_structural   LiNi(PO3)4
_chemical_formula_sum   'Li8 Ni8 P32 O96'
_cell_volume   2003.49139471
_cell_formula_units_Z   8
loop_
 _symmetry_equiv_pos_site_id
 _symmetry_equiv_pos_as_xyz
  1  'x, y, z'
loop_
 _atom_site_type_symbol
 _atom_site_label
 _atom_site_symmetry_multiplicity
 _atom_site_fract_x
 _atom_site_fract_y
 _atom_site_fract_z
 _atom_site_occupancy
  Li  Li0  1  0.15805950  0.95318850  0.64422700  1
  Li  Li1  1  0.84194050  0.95318850  0.85577300  1
  Li  Li2  1  0.84194050  0.04681150  0.14422700  1
  Li  Li3  1  0.15805950  0.04681150  0.35577300  1
  Li  Li4  1  0.65805950  0.45318850  0.64422700  1
  Li  Li5  1  0.34194050  0.45318850  0.85577300  1
  Li  Li6  1  0.34194050  0.54681150  0.14422700  1
  Li  Li7  1  0.65805950  0.54681150  0.35577300  1
  Ni  Ni8  1  0.76992400  0.19763500  0.88918600  1
  Ni  Ni9  1  0.23007600  0.19763500  0.61081400  1
  Ni  Ni10  1  0.23007600  0.80236500  0.38918600  1
  Ni  Ni11  1  0.76992400  0.80236500  0.11081400  1
  Ni  Ni12  1  0.26992400  0.69763500  0.88918600  1
  Ni  Ni13  1  0.73007600  0.69763500  0.61081400  1
  Ni  Ni14  1  0.73007600  0.30236500  0.38918600  1
  Ni  Ni15  1  0.26992400  0.30236500  0.11081400  1
  P  P16  1  0.40325600  0.36020800  0.35057600  1
  P  P17  1  0.59674400  0.36020800  0.14942400  1
  P  P18  1  0.53543500  0.24197000  0.00811200  1
  P  P19  1  0.46456500  0.24197000  0.49188800  1
  P  P20  1  0.50000000  0.12596400  0.75000000  1
  P  P21  1  0.29534600  0.04677200  0.18890900  1
  P  P22  1  0.70465400  0.04677200  0.31109100  1
  P  P23  1  0.35394700  0.00000000  0.50000000  1
  P  P24  1  0.64605300  0.00000000  0.00000000  1
  P  P25  1  0.29534600  0.95322800  0.81109100  1
  P  P26  1  0.70465400  0.95322800  0.68890900  1
  P  P27  1  0.50000000  0.87403600  0.25000000  1
  P  P28  1  0.53543500  0.75803000  0.99188800  1
  P  P29  1  0.46456500  0.75803000  0.50811200  1
  P  P30  1  0.40325600  0.63979200  0.64942400  1
  P  P31  1  0.59674400  0.63979200  0.85057600  1
  P  P32  1  0.90325600  0.86020800  0.35057600  1
  P  P33  1  0.09674400  0.86020800  0.14942400  1
  P  P34  1  0.03543500  0.74197000  0.00811200  1
  P  P35  1  0.96456500  0.74197000  0.49188800  1
  P  P36  1  0.00000000  0.62596400  0.75000000  1
  P  P37  1  0.79534600  0.54677200  0.18890900  1
  P  P38  1  0.20465400  0.54677200  0.31109100  1
  P  P39  1  0.85394700  0.50000000  0.50000000  1
  P  P40  1  0.14605300  0.50000000  0.00000000  1
  P  P41  1  0.79534600  0.45322800  0.81109100  1
  P  P42  1  0.20465400  0.45322800  0.68890900  1
  P  P43  1  0.00000000  0.37403600  0.25000000  1
  P  P44  1  0.03543500  0.25803000  0.99188800  1
  P  P45  1  0.96456500  0.25803000  0.50811200  1
  P  P46  1  0.90325600  0.13979200  0.64942400  1
  P  P47  1  0.09674400  0.13979200  0.85057600  1
  O  O48  1  0.44468900  0.39767500  0.14919700  1
  O  O49  1  0.55531100  0.39767500  0.35080300  1
  O  O50  1  0.64534650  0.29650550  0.21642000  1
  O  O51  1  0.35465350  0.29650550  0.28358000  1
  O  O52  1  0.61226700  0.28356000  0.48430000  1
  O  O53  1  0.38773300  0.28356000  0.01570000  1
  O  O54  1  0.37004000  0.28432400  0.42220900  1
  O  O55  1  0.62996000  0.28432400  0.07779100  1
  O  O56  1  0.39055100  0.27612400  0.56112100  1
  O  O57  1  0.60944900  0.27612400  0.93887900  1
  O  O58  1  0.60870500  0.19150100  0.79332400  1
  O  O59  1  0.39129500  0.19150100  0.70667600  1
  O  O60  1  0.65486600  0.15025400  0.35336000  1
  O  O61  1  0.34513400  0.15025400  0.14664000  1
  O  O62  1  0.46111950  0.10257150  0.48127800  1
  O  O63  1  0.53888050  0.10257150  0.01872200  1
  O  O64  1  0.81095350  0.02504050  0.63503300  1
  O  O65  1  0.18904650  0.02504050  0.86496700  1
  O  O66  1  0.57231650  0.04071350  0.69117900  1
  O  O67  1  0.42768350  0.04071350  0.80882100  1
  O  O68  1  0.72562000  0.02901000  0.93101900  1
  O  O69  1  0.27438000  0.02901000  0.56898100  1
  O  O70  1  0.23112650  0.06195250  0.26262000  1
  O  O71  1  0.76887350  0.06195250  0.23738000  1
  O  O72  1  0.23112650  0.93804750  0.73738000  1
  O  O73  1  0.76887350  0.93804750  0.76262000  1
  O  O74  1  0.27438000  0.97099000  0.43101900  1
  O  O75  1  0.72562000  0.97099000  0.06898100  1
  O  O76  1  0.57231650  0.95928650  0.30882100  1
  O  O77  1  0.42768350  0.95928650  0.19117900  1
  O  O78  1  0.18904650  0.97495950  0.13503300  1
  O  O79  1  0.81095350  0.97495950  0.36496700  1
  O  O80  1  0.53888050  0.89742850  0.98127800  1
  O  O81  1  0.46111950  0.89742850  0.51872200  1
  O  O82  1  0.65486600  0.84974600  0.64664000  1
  O  O83  1  0.34513400  0.84974600  0.85336000  1
  O  O84  1  0.60870500  0.80849900  0.20667600  1
  O  O85  1  0.39129500  0.80849900  0.29332400  1
  O  O86  1  0.39055100  0.72387600  0.43887900  1
  O  O87  1  0.60944900  0.72387600  0.06112100  1
  O  O88  1  0.37004000  0.71567600  0.57779100  1
  O  O89  1  0.62996000  0.71567600  0.92220900  1
  O  O90  1  0.61226700  0.71644000  0.51570000  1
  O  O91  1  0.38773300  0.71644000  0.98430000  1
  O  O92  1  0.35465350  0.70349450  0.71642000  1
  O  O93  1  0.64534650  0.70349450  0.78358000  1
  O  O94  1  0.55531100  0.60232500  0.64919700  1
  O  O95  1  0.44468900  0.60232500  0.85080300  1
  O  O96  1  0.94468900  0.89767500  0.14919700  1
  O  O97  1  0.05531100  0.89767500  0.35080300  1
  O  O98  1  0.14534650  0.79650550  0.21642000  1
  O  O99  1  0.85465350  0.79650550  0.28358000  1
  O  O100  1  0.11226700  0.78356000  0.48430000  1
  O  O101  1  0.88773300  0.78356000  0.01570000  1
  O  O102  1  0.87004000  0.78432400  0.42220900  1
  O  O103  1  0.12996000  0.78432400  0.07779100  1
  O  O104  1  0.89055100  0.77612400  0.56112100  1
  O  O105  1  0.10944900  0.77612400  0.93887900  1
  O  O106  1  0.10870500  0.69150100  0.79332400  1
  O  O107  1  0.89129500  0.69150100  0.70667600  1
  O  O108  1  0.15486600  0.65025400  0.35336000  1
  O  O109  1  0.84513400  0.65025400  0.14664000  1
  O  O110  1  0.96111950  0.60257150  0.48127800  1
  O  O111  1  0.03888050  0.60257150  0.01872200  1
  O  O112  1  0.31095350  0.52504050  0.63503300  1
  O  O113  1  0.68904650  0.52504050  0.86496700  1
  O  O114  1  0.07231650  0.54071350  0.69117900  1
  O  O115  1  0.92768350  0.54071350  0.80882100  1
  O  O116  1  0.22562000  0.52901000  0.93101900  1
  O  O117  1  0.77438000  0.52901000  0.56898100  1
  O  O118  1  0.73112650  0.56195250  0.26262000  1
  O  O119  1  0.26887350  0.56195250  0.23738000  1
  O  O120  1  0.73112650  0.43804750  0.73738000  1
  O  O121  1  0.26887350  0.43804750  0.76262000  1
  O  O122  1  0.77438000  0.47099000  0.43101900  1
  O  O123  1  0.22562000  0.47099000  0.06898100  1
  O  O124  1  0.07231650  0.45928650  0.30882100  1
  O  O125  1  0.92768350  0.45928650  0.19117900  1
  O  O126  1  0.68904650  0.47495950  0.13503300  1
  O  O127  1  0.31095350  0.47495950  0.36496700  1
  O  O128  1  0.03888050  0.39742850  0.98127800  1
  O  O129  1  0.96111950  0.39742850  0.51872200  1
  O  O130  1  0.15486600  0.34974600  0.64664000  1
  O  O131  1  0.84513400  0.34974600  0.85336000  1
  O  O132  1  0.10870500  0.30849900  0.20667600  1
  O  O133  1  0.89129500  0.30849900  0.29332400  1
  O  O134  1  0.89055100  0.22387600  0.43887900  1
  O  O135  1  0.10944900  0.22387600  0.06112100  1
  O  O136  1  0.87004000  0.21567600  0.57779100  1
  O  O137  1  0.12996000  0.21567600  0.92220900  1
  O  O138  1  0.11226700  0.21644000  0.51570000  1
  O  O139  1  0.88773300  0.21644000  0.98430000  1
  O  O140  1  0.85465350  0.20349450  0.71642000  1
  O  O141  1  0.14534650  0.20349450  0.78358000  1
  O  O142  1  0.05531100  0.10232500  0.64919700  1
  O  O143  1  0.94468900  0.10232500  0.85080300  1
