# generated using pymatgen
data_Ca3Sn2S7
_symmetry_space_group_name_H-M   'P 1'
_cell_length_a   7.06247600
_cell_length_b   24.41960000
_cell_length_c   6.99224600
_cell_angle_alpha   90.00000000
_cell_angle_beta   90.00000000
_cell_angle_gamma   90.00000000
_symmetry_Int_Tables_number   1
_chemical_formula_structural   Ca3Sn2S7
_chemical_formula_sum   'Ca12 Sn8 S28'
_cell_volume   1205.90259565
_cell_formula_units_Z   4
loop_
 _symmetry_equiv_pos_site_id
 _symmetry_equiv_pos_as_xyz
  1  'x, y, z'
loop_
 _atom_site_type_symbol
 _atom_site_label
 _atom_site_symmetry_multiplicity
 _atom_site_fract_x
 _atom_site_fract_y
 _atom_site_fract_z
 _atom_site_occupancy
  Ca  Ca0  1  0.75000000  0.25000000  0.00000000  1
  Ca  Ca1  1  0.25000000  0.25000000  0.50000000  1
  Ca  Ca2  1  0.78047500  0.07047200  0.00000000  1
  Ca  Ca3  1  0.71952500  0.42952800  0.00000000  1
  Ca  Ca4  1  0.21952500  0.07047200  0.50000000  1
  Ca  Ca5  1  0.28047500  0.42952800  0.50000000  1
  Ca  Ca6  1  0.25000000  0.75000000  0.00000000  1
  Ca  Ca7  1  0.75000000  0.75000000  0.50000000  1
  Ca  Ca8  1  0.28047500  0.57047200  0.00000000  1
  Ca  Ca9  1  0.21952500  0.92952800  0.00000000  1
  Ca  Ca10  1  0.71952500  0.57047200  0.50000000  1
  Ca  Ca11  1  0.78047500  0.92952800  0.50000000  1
  Sn  Sn12  1  0.25697300  0.35802100  0.00000000  1
  Sn  Sn13  1  0.24302700  0.14197900  0.00000000  1
  Sn  Sn14  1  0.74302700  0.35802100  0.50000000  1
  Sn  Sn15  1  0.75697300  0.14197900  0.50000000  1
  Sn  Sn16  1  0.75697300  0.85802100  0.00000000  1
  Sn  Sn17  1  0.74302700  0.64197900  0.00000000  1
  Sn  Sn18  1  0.24302700  0.85802100  0.50000000  1
  Sn  Sn19  1  0.25697300  0.64197900  0.50000000  1
  S  S20  1  0.25000000  0.25000000  0.00000000  1
  S  S21  1  0.75000000  0.25000000  0.50000000  1
  S  S22  1  0.50000000  0.32593600  0.75000000  1
  S  S23  1  0.00000000  0.17406400  0.75000000  1
  S  S24  1  0.00000000  0.17406400  0.25000000  1
  S  S25  1  0.50000000  0.32593600  0.25000000  1
  S  S26  1  0.33644400  0.45635700  0.00000000  1
  S  S27  1  0.16355600  0.04364300  0.00000000  1
  S  S28  1  0.66355600  0.45635700  0.50000000  1
  S  S29  1  0.83644400  0.04364300  0.50000000  1
  S  S30  1  0.50000000  0.12252800  0.75000000  1
  S  S31  1  0.00000000  0.37747200  0.75000000  1
  S  S32  1  0.00000000  0.37747200  0.25000000  1
  S  S33  1  0.50000000  0.12252800  0.25000000  1
  S  S34  1  0.75000000  0.75000000  0.00000000  1
  S  S35  1  0.25000000  0.75000000  0.50000000  1
  S  S36  1  0.00000000  0.82593600  0.75000000  1
  S  S37  1  0.50000000  0.67406400  0.75000000  1
  S  S38  1  0.50000000  0.67406400  0.25000000  1
  S  S39  1  0.00000000  0.82593600  0.25000000  1
  S  S40  1  0.83644400  0.95635700  0.00000000  1
  S  S41  1  0.66355600  0.54364300  0.00000000  1
  S  S42  1  0.16355600  0.95635700  0.50000000  1
  S  S43  1  0.33644400  0.54364300  0.50000000  1
  S  S44  1  0.00000000  0.62252800  0.75000000  1
  S  S45  1  0.50000000  0.87747200  0.75000000  1
  S  S46  1  0.50000000  0.87747200  0.25000000  1
  S  S47  1  0.00000000  0.62252800  0.25000000  1
