# generated using pymatgen
data_Mn6O7F5
_symmetry_space_group_name_H-M   'P 1'
_cell_length_a   4.62265650
_cell_length_b   5.68521997
_cell_length_c   15.29817092
_cell_angle_alpha   89.94314373
_cell_angle_beta   89.73884808
_cell_angle_gamma   87.77698803
_symmetry_Int_Tables_number   1
_chemical_formula_structural   Mn6O7F5
_chemical_formula_sum   'Mn12 O14 F10'
_cell_volume   401.74158026
_cell_formula_units_Z   2
loop_
 _symmetry_equiv_pos_site_id
 _symmetry_equiv_pos_as_xyz
  1  'x, y, z'
loop_
 _atom_site_type_symbol
 _atom_site_label
 _atom_site_symmetry_multiplicity
 _atom_site_fract_x
 _atom_site_fract_y
 _atom_site_fract_z
 _atom_site_occupancy
  Mn  Mn0  1  0.98331800  0.84698500  0.40736800  1
  Mn  Mn1  1  0.98126100  0.16237100  0.24261900  1
  Mn  Mn2  1  0.00425000  0.84655500  0.07900200  1
  Mn  Mn3  1  0.98042900  0.83290300  0.75155100  1
  Mn  Mn4  1  0.99071400  0.17434000  0.57550400  1
  Mn  Mn5  1  0.95780300  0.15205900  0.91493300  1
  Mn  Mn6  1  0.48040300  0.62430400  0.58881600  1
  Mn  Mn7  1  0.52122400  0.64917200  0.92509800  1
  Mn  Mn8  1  0.50127500  0.63581400  0.25886000  1
  Mn  Mn9  1  0.49971500  0.35139500  0.08657500  1
  Mn  Mn10  1  0.50228900  0.34519000  0.41639100  1
  Mn  Mn11  1  0.51592600  0.36291700  0.75277500  1
  O  O12  1  0.76563700  0.88491400  0.30083500  1
  O  O13  1  0.78026300  0.88751000  0.97210300  1
  O  O14  1  0.78694300  0.11882200  0.13504500  1
  O  O15  1  0.77882500  0.11325500  0.46561900  1
  O  O16  1  0.76511200  0.11726600  0.80754400  1
  O  O17  1  0.72733400  0.39489400  0.31064800  1
  O  O18  1  0.72209700  0.39186600  0.64494400  1
  O  O19  1  0.71644300  0.60565000  0.81296600  1
  O  O20  1  0.72762300  0.38522400  0.97703300  1
  O  O21  1  0.28606100  0.62202900  0.02911000  1
  O  O22  1  0.28035000  0.39068100  0.19488500  1
  O  O23  1  0.28039300  0.61999100  0.36236600  1
  O  O24  1  0.28295900  0.37972900  0.52580400  1
  O  O25  1  0.27053900  0.60544900  0.69522500  1
  F  F26  1  0.75456000  0.88846900  0.63369900  1
  F  F27  1  0.74262900  0.62051900  0.15159400  1
  F  F28  1  0.73984300  0.61953600  0.48567300  1
  F  F29  1  0.25553500  0.37763000  0.85912000  1
  F  F30  1  0.25199500  0.87515400  0.18967300  1
  F  F31  1  0.23342200  0.86886600  0.52538600  1
  F  F32  1  0.22494700  0.12121500  0.34761200  1
  F  F33  1  0.22855800  0.12833200  0.01515600  1
  F  F34  1  0.24401200  0.88428300  0.86505600  1
  F  F35  1  0.23531400  0.11471200  0.69341600  1
