# generated using pymatgen
data_Li2Mn2Si2O7
_symmetry_space_group_name_H-M   'P 1'
_cell_length_a   5.10134300
_cell_length_b   8.62435600
_cell_length_c   13.36871800
_cell_angle_alpha   90.00000000
_cell_angle_beta   90.00000000
_cell_angle_gamma   90.00000000
_symmetry_Int_Tables_number   1
_chemical_formula_structural   Li2Mn2Si2O7
_chemical_formula_sum   'Li8 Mn8 Si8 O28'
_cell_volume   588.16741842
_cell_formula_units_Z   4
loop_
 _symmetry_equiv_pos_site_id
 _symmetry_equiv_pos_as_xyz
  1  'x, y, z'
loop_
 _atom_site_type_symbol
 _atom_site_label
 _atom_site_symmetry_multiplicity
 _atom_site_fract_x
 _atom_site_fract_y
 _atom_site_fract_z
 _atom_site_occupancy
  Li  Li0  1  0.05019900  0.70394800  0.58195800  1
  Li  Li1  1  0.05019900  0.70394800  0.91804200  1
  Li  Li2  1  0.05019900  0.29605200  0.41804200  1
  Li  Li3  1  0.05019900  0.29605200  0.08195800  1
  Li  Li4  1  0.55019900  0.20394800  0.58195800  1
  Li  Li5  1  0.55019900  0.20394800  0.91804200  1
  Li  Li6  1  0.55019900  0.79605200  0.41804200  1
  Li  Li7  1  0.55019900  0.79605200  0.08195800  1
  Mn  Mn8  1  0.52795450  0.50000000  0.00000000  1
  Mn  Mn9  1  0.52795450  0.50000000  0.50000000  1
  Mn  Mn10  1  0.51947000  0.48250800  0.25000000  1
  Mn  Mn11  1  0.51947000  0.51749200  0.75000000  1
  Mn  Mn12  1  0.02795450  0.00000000  0.00000000  1
  Mn  Mn13  1  0.02795450  0.00000000  0.50000000  1
  Mn  Mn14  1  0.01947000  0.98250800  0.25000000  1
  Mn  Mn15  1  0.01947000  0.01749200  0.75000000  1
  Si  Si16  1  0.04764350  0.64313750  0.36318000  1
  Si  Si17  1  0.04764350  0.64313750  0.13682000  1
  Si  Si18  1  0.04764350  0.35686250  0.63682000  1
  Si  Si19  1  0.04764350  0.35686250  0.86318000  1
  Si  Si20  1  0.54764350  0.14313750  0.36318000  1
  Si  Si21  1  0.54764350  0.14313750  0.13682000  1
  Si  Si22  1  0.54764350  0.85686250  0.63682000  1
  Si  Si23  1  0.54764350  0.85686250  0.86318000  1
  O  O24  1  0.10909400  0.72686100  0.25000000  1
  O  O25  1  0.10909400  0.27313900  0.75000000  1
  O  O26  1  0.73378900  0.60327100  0.13358100  1
  O  O27  1  0.73378900  0.60327100  0.36641900  1
  O  O28  1  0.73378900  0.39672900  0.86641900  1
  O  O29  1  0.73378900  0.39672900  0.63358100  1
  O  O30  1  0.22444250  0.51593250  0.87078100  1
  O  O31  1  0.22444250  0.51593250  0.62921900  1
  O  O32  1  0.22444250  0.48406750  0.37078100  1
  O  O33  1  0.22444250  0.48406750  0.12921900  1
  O  O34  1  0.15296300  0.76961200  0.05668200  1
  O  O35  1  0.15296300  0.76961200  0.44331800  1
  O  O36  1  0.15296300  0.23038800  0.55668200  1
  O  O37  1  0.15296300  0.23038800  0.94331800  1
  O  O38  1  0.60909400  0.22686100  0.25000000  1
  O  O39  1  0.60909400  0.77313900  0.75000000  1
  O  O40  1  0.23378900  0.10327100  0.13358100  1
  O  O41  1  0.23378900  0.10327100  0.36641900  1
  O  O42  1  0.23378900  0.89672900  0.86641900  1
  O  O43  1  0.23378900  0.89672900  0.63358100  1
  O  O44  1  0.72444250  0.01593250  0.87078100  1
  O  O45  1  0.72444250  0.01593250  0.62921900  1
  O  O46  1  0.72444250  0.98406750  0.37078100  1
  O  O47  1  0.72444250  0.98406750  0.12921900  1
  O  O48  1  0.65296300  0.26961200  0.05668200  1
  O  O49  1  0.65296300  0.26961200  0.44331800  1
  O  O50  1  0.65296300  0.73038800  0.55668200  1
  O  O51  1  0.65296300  0.73038800  0.94331800  1
