# generated using pymatgen
data_Y11In9Ni4
_symmetry_space_group_name_H-M   'P 1'
_cell_length_a   14.44162600
_cell_length_b   21.87705600
_cell_length_c   3.65168600
_cell_angle_alpha   90.00000000
_cell_angle_beta   90.00000000
_cell_angle_gamma   90.00000000
_symmetry_Int_Tables_number   1
_chemical_formula_structural   Y11In9Ni4
_chemical_formula_sum   'Y22 In18 Ni8'
_cell_volume   1153.71462696
_cell_formula_units_Z   2
loop_
 _symmetry_equiv_pos_site_id
 _symmetry_equiv_pos_as_xyz
  1  'x, y, z'
loop_
 _atom_site_type_symbol
 _atom_site_label
 _atom_site_symmetry_multiplicity
 _atom_site_fract_x
 _atom_site_fract_y
 _atom_site_fract_z
 _atom_site_occupancy
  Y  Y0  1  0.24674950  0.16875050  0.00000000  1
  Y  Y1  1  0.75325050  0.83124950  0.00000000  1
  Y  Y2  1  0.24674950  0.83124950  0.00000000  1
  Y  Y3  1  0.75325050  0.16875050  0.00000000  1
  Y  Y4  1  0.50000000  0.87477300  0.00000000  1
  Y  Y5  1  0.50000000  0.12522700  0.00000000  1
  Y  Y6  1  0.50000000  0.66173600  0.00000000  1
  Y  Y7  1  0.50000000  0.33826400  0.00000000  1
  Y  Y8  1  0.00000000  0.00000000  0.00000000  1
  Y  Y9  1  0.31200000  0.00000000  0.00000000  1
  Y  Y10  1  0.68800000  0.00000000  0.00000000  1
  Y  Y11  1  0.74674950  0.66875050  0.00000000  1
  Y  Y12  1  0.25325050  0.33124950  0.00000000  1
  Y  Y13  1  0.74674950  0.33124950  0.00000000  1
  Y  Y14  1  0.25325050  0.66875050  0.00000000  1
  Y  Y15  1  0.00000000  0.37477300  0.00000000  1
  Y  Y16  1  0.00000000  0.62522700  0.00000000  1
  Y  Y17  1  0.00000000  0.16173600  0.00000000  1
  Y  Y18  1  0.00000000  0.83826400  0.00000000  1
  Y  Y19  1  0.50000000  0.50000000  0.00000000  1
  Y  Y20  1  0.81200000  0.50000000  0.00000000  1
  Y  Y21  1  0.18800000  0.50000000  0.00000000  1
  In  In22  1  0.60511350  0.76424950  0.50000000  1
  In  In23  1  0.39488650  0.23575050  0.50000000  1
  In  In24  1  0.60511350  0.23575050  0.50000000  1
  In  In25  1  0.39488650  0.76424950  0.50000000  1
  In  In26  1  0.14768350  0.07119750  0.50000000  1
  In  In27  1  0.85231650  0.92880250  0.50000000  1
  In  In28  1  0.14768350  0.92880250  0.50000000  1
  In  In29  1  0.85231650  0.07119750  0.50000000  1
  In  In30  1  0.50000000  0.00000000  0.50000000  1
  In  In31  1  0.10511350  0.26424950  0.50000000  1
  In  In32  1  0.89488650  0.73575050  0.50000000  1
  In  In33  1  0.10511350  0.73575050  0.50000000  1
  In  In34  1  0.89488650  0.26424950  0.50000000  1
  In  In35  1  0.64768350  0.57119750  0.50000000  1
  In  In36  1  0.35231650  0.42880250  0.50000000  1
  In  In37  1  0.64768350  0.42880250  0.50000000  1
  In  In38  1  0.35231650  0.57119750  0.50000000  1
  In  In39  1  0.00000000  0.50000000  0.50000000  1
  Ni  Ni40  1  0.34793050  0.10098750  0.50000000  1
  Ni  Ni41  1  0.65206950  0.89901250  0.50000000  1
  Ni  Ni42  1  0.34793050  0.89901250  0.50000000  1
  Ni  Ni43  1  0.65206950  0.10098750  0.50000000  1
  Ni  Ni44  1  0.84793050  0.60098750  0.50000000  1
  Ni  Ni45  1  0.15206950  0.39901250  0.50000000  1
  Ni  Ni46  1  0.84793050  0.39901250  0.50000000  1
  Ni  Ni47  1  0.15206950  0.60098750  0.50000000  1
