# generated using pymatgen
data_LiMnPO4
_symmetry_space_group_name_H-M   'P 1'
_cell_length_a   7.77550711
_cell_length_b   7.77550711
_cell_length_c   9.87430300
_cell_angle_alpha   90.00000000
_cell_angle_beta   90.00000000
_cell_angle_gamma   120.00000000
_symmetry_Int_Tables_number   1
_chemical_formula_structural   LiMnPO4
_chemical_formula_sum   'Li6 Mn6 P6 O24'
_cell_volume   517.00474213
_cell_formula_units_Z   6
loop_
 _symmetry_equiv_pos_site_id
 _symmetry_equiv_pos_as_xyz
  1  'x, y, z'
loop_
 _atom_site_type_symbol
 _atom_site_label
 _atom_site_symmetry_multiplicity
 _atom_site_fract_x
 _atom_site_fract_y
 _atom_site_fract_z
 _atom_site_occupancy
  Li  Li0  1  0.03414933  0.59162567  0.49063400  1
  Li  Li1  1  0.55747633  0.96585067  0.49063400  1
  Li  Li2  1  0.40837433  0.44252367  0.49063400  1
  Li  Li3  1  0.44252367  0.40837433  0.99063400  1
  Li  Li4  1  0.59162567  0.03414933  0.99063400  1
  Li  Li5  1  0.96585067  0.55747633  0.99063400  1
  Mn  Mn6  1  0.23241233  0.94716667  0.26778400  1
  Mn  Mn7  1  0.05283333  0.28524567  0.26778400  1
  Mn  Mn8  1  0.28524567  0.05283333  0.76778400  1
  Mn  Mn9  1  0.71475433  0.76758767  0.26778400  1
  Mn  Mn10  1  0.76758767  0.71475433  0.76778400  1
  Mn  Mn11  1  0.94716667  0.23241233  0.76778400  1
  P  P12  1  0.33333333  0.66666667  0.17638700  1
  P  P13  1  0.00000000  0.00000000  0.00241500  1
  P  P14  1  0.00000000  0.00000000  0.50241500  1
  P  P15  1  0.33333333  0.66666667  0.77421500  1
  P  P16  1  0.66666667  0.33333333  0.67638700  1
  P  P17  1  0.66666667  0.33333333  0.27421500  1
  O  O18  1  0.07910633  0.86466467  0.45088900  1
  O  O19  1  0.18607233  0.73295167  0.12491400  1
  O  O20  1  0.39164833  0.87640267  0.83182200  1
  O  O21  1  0.12359733  0.51524567  0.83182200  1
  O  O22  1  0.26704833  0.45312067  0.12491400  1
  O  O23  1  0.33333333  0.66666667  0.33401600  1
  O  O24  1  0.00000000  0.00000000  0.16411900  1
  O  O25  1  0.00000000  0.00000000  0.66411900  1
  O  O26  1  0.33333333  0.66666667  0.61775500  1
  O  O27  1  0.13533533  0.21444167  0.45088900  1
  O  O28  1  0.21444167  0.13533533  0.95088900  1
  O  O29  1  0.54687933  0.81392767  0.12491400  1
  O  O30  1  0.48475433  0.60835167  0.83182200  1
  O  O31  1  0.78555833  0.92089367  0.45088900  1
  O  O32  1  0.45312067  0.26704833  0.62491400  1
  O  O33  1  0.51524567  0.12359733  0.33182200  1
  O  O34  1  0.60835167  0.48475433  0.33182200  1
  O  O35  1  0.81392767  0.54687933  0.62491400  1
  O  O36  1  0.66666667  0.33333333  0.83401600  1
  O  O37  1  0.66666667  0.33333333  0.11775500  1
  O  O38  1  0.92089367  0.78555833  0.95088900  1
  O  O39  1  0.73295167  0.18607233  0.62491400  1
  O  O40  1  0.87640267  0.39164833  0.33182200  1
  O  O41  1  0.86466467  0.07910633  0.95088900  1
