# generated using pymatgen
data_NbNiTe5
_symmetry_space_group_name_H-M   'P 1'
_cell_length_a   3.70803600
_cell_length_b   13.75806600
_cell_length_c   15.27028900
_cell_angle_alpha   90.00000000
_cell_angle_beta   90.00000000
_cell_angle_gamma   90.00000000
_symmetry_Int_Tables_number   1
_chemical_formula_structural   NbNiTe5
_chemical_formula_sum   'Nb4 Ni4 Te20'
_cell_volume   779.01996281
_cell_formula_units_Z   4
loop_
 _symmetry_equiv_pos_site_id
 _symmetry_equiv_pos_as_xyz
  1  'x, y, z'
loop_
 _atom_site_type_symbol
 _atom_site_label
 _atom_site_symmetry_multiplicity
 _atom_site_fract_x
 _atom_site_fract_y
 _atom_site_fract_z
 _atom_site_occupancy
  Nb  Nb0  1  0.50000000  0.00941100  0.75000000  1
  Nb  Nb1  1  0.00000000  0.49058900  0.25000000  1
  Nb  Nb2  1  0.00000000  0.50941100  0.75000000  1
  Nb  Nb3  1  0.50000000  0.99058900  0.25000000  1
  Ni  Ni4  1  0.00000000  0.00000000  0.00000000  1
  Ni  Ni5  1  0.00000000  0.00000000  0.50000000  1
  Ni  Ni6  1  0.50000000  0.50000000  0.00000000  1
  Ni  Ni7  1  0.50000000  0.50000000  0.50000000  1
  Te  Te8  1  0.50000000  0.10012300  0.92385100  1
  Te  Te9  1  0.00000000  0.39987700  0.07614900  1
  Te  Te10  1  0.00000000  0.39987700  0.42385100  1
  Te  Te11  1  0.50000000  0.10012300  0.57614900  1
  Te  Te12  1  0.00000000  0.16723100  0.75000000  1
  Te  Te13  1  0.50000000  0.33276900  0.25000000  1
  Te  Te14  1  0.00000000  0.09923000  0.14514700  1
  Te  Te15  1  0.50000000  0.40077000  0.85485300  1
  Te  Te16  1  0.50000000  0.40077000  0.64514700  1
  Te  Te17  1  0.00000000  0.09923000  0.35485300  1
  Te  Te18  1  0.00000000  0.60012300  0.92385100  1
  Te  Te19  1  0.50000000  0.89987700  0.07614900  1
  Te  Te20  1  0.50000000  0.89987700  0.42385100  1
  Te  Te21  1  0.00000000  0.60012300  0.57614900  1
  Te  Te22  1  0.50000000  0.66723100  0.75000000  1
  Te  Te23  1  0.00000000  0.83276900  0.25000000  1
  Te  Te24  1  0.50000000  0.59923000  0.14514700  1
  Te  Te25  1  0.00000000  0.90077000  0.85485300  1
  Te  Te26  1  0.00000000  0.90077000  0.64514700  1
  Te  Te27  1  0.50000000  0.59923000  0.35485300  1
