# generated using pymatgen
data_Fe7(Ni3O8)2
_symmetry_space_group_name_H-M   'P 1'
_cell_length_a   10.37516200
_cell_length_b   6.04942200
_cell_length_c   10.29724724
_cell_angle_alpha   90.00000000
_cell_angle_beta   109.24444771
_cell_angle_gamma   90.00000000
_symmetry_Int_Tables_number   1
_chemical_formula_structural   Fe7(Ni3O8)2
_chemical_formula_sum   'Fe14 Ni12 O32'
_cell_volume   610.17941187
_cell_formula_units_Z   2
loop_
 _symmetry_equiv_pos_site_id
 _symmetry_equiv_pos_as_xyz
  1  'x, y, z'
loop_
 _atom_site_type_symbol
 _atom_site_label
 _atom_site_symmetry_multiplicity
 _atom_site_fract_x
 _atom_site_fract_y
 _atom_site_fract_z
 _atom_site_occupancy
  Fe  Fe0  1  0.00000000  0.00000000  0.50000000  1
  Fe  Fe1  1  0.68738500  0.00000000  0.57347000  1
  Fe  Fe2  1  0.50401850  0.24439350  0.24832300  1
  Fe  Fe3  1  0.50401850  0.75560650  0.24832300  1
  Fe  Fe4  1  0.31261500  0.00000000  0.42653000  1
  Fe  Fe5  1  0.49598150  0.24439350  0.75167700  1
  Fe  Fe6  1  0.49598150  0.75560650  0.75167700  1
  Fe  Fe7  1  0.50000000  0.50000000  0.50000000  1
  Fe  Fe8  1  0.18738500  0.50000000  0.57347000  1
  Fe  Fe9  1  0.00401850  0.74439350  0.24832300  1
  Fe  Fe10  1  0.00401850  0.25560650  0.24832300  1
  Fe  Fe11  1  0.81261500  0.50000000  0.42653000  1
  Fe  Fe12  1  0.99598150  0.74439350  0.75167700  1
  Fe  Fe13  1  0.99598150  0.25560650  0.75167700  1
  Ni  Ni14  1  0.74866700  0.00000000  0.25234600  1
  Ni  Ni15  1  0.00000000  0.00000000  0.00000000  1
  Ni  Ni16  1  0.75000000  0.25000000  0.00000000  1
  Ni  Ni17  1  0.75000000  0.75000000  0.00000000  1
  Ni  Ni18  1  0.50000000  0.00000000  0.00000000  1
  Ni  Ni19  1  0.25133300  0.00000000  0.74765400  1
  Ni  Ni20  1  0.24866700  0.50000000  0.25234600  1
  Ni  Ni21  1  0.50000000  0.50000000  0.00000000  1
  Ni  Ni22  1  0.25000000  0.75000000  0.00000000  1
  Ni  Ni23  1  0.25000000  0.25000000  0.00000000  1
  Ni  Ni24  1  0.00000000  0.50000000  0.00000000  1
  Ni  Ni25  1  0.75133300  0.50000000  0.74765400  1
  O  O26  1  0.11569700  0.00000000  0.36221000  1
  O  O27  1  0.87729700  0.00000000  0.12594100  1
  O  O28  1  0.61841750  0.24131950  0.12219600  1
  O  O29  1  0.61841750  0.75868050  0.12219600  1
  O  O30  1  0.38001900  0.74128000  0.36568500  1
  O  O31  1  0.38001900  0.25872000  0.36568500  1
  O  O32  1  0.38176100  0.00000000  0.12546400  1
  O  O33  1  0.61956700  0.00000000  0.36875600  1
  O  O34  1  0.88430300  0.00000000  0.63779000  1
  O  O35  1  0.12270300  0.00000000  0.87405900  1
  O  O36  1  0.61998100  0.25872000  0.63431500  1
  O  O37  1  0.61998100  0.74128000  0.63431500  1
  O  O38  1  0.38158250  0.75868050  0.87780400  1
  O  O39  1  0.38158250  0.24131950  0.87780400  1
  O  O40  1  0.61823900  0.00000000  0.87453600  1
  O  O41  1  0.38043300  0.00000000  0.63124400  1
  O  O42  1  0.61569700  0.50000000  0.36221000  1
  O  O43  1  0.37729700  0.50000000  0.12594100  1
  O  O44  1  0.11841750  0.74131950  0.12219600  1
  O  O45  1  0.11841750  0.25868050  0.12219600  1
  O  O46  1  0.88001900  0.24128000  0.36568500  1
  O  O47  1  0.88001900  0.75872000  0.36568500  1
  O  O48  1  0.88176100  0.50000000  0.12546400  1
  O  O49  1  0.11956700  0.50000000  0.36875600  1
  O  O50  1  0.38430300  0.50000000  0.63779000  1
  O  O51  1  0.62270300  0.50000000  0.87405900  1
  O  O52  1  0.11998100  0.75872000  0.63431500  1
  O  O53  1  0.11998100  0.24128000  0.63431500  1
  O  O54  1  0.88158250  0.25868050  0.87780400  1
  O  O55  1  0.88158250  0.74131950  0.87780400  1
  O  O56  1  0.11823900  0.50000000  0.87453600  1
  O  O57  1  0.88043300  0.50000000  0.63124400  1
