# generated using pymatgen
data_Mn3O5F
_symmetry_space_group_name_H-M   'P 1'
_cell_length_a   8.89067400
_cell_length_b   6.32120000
_cell_length_c   7.24299702
_cell_angle_alpha   90.00000000
_cell_angle_beta   113.26923047
_cell_angle_gamma   90.00000000
_symmetry_Int_Tables_number   1
_chemical_formula_structural   Mn3O5F
_chemical_formula_sum   'Mn12 O20 F4'
_cell_volume   373.94411381
_cell_formula_units_Z   4
loop_
 _symmetry_equiv_pos_site_id
 _symmetry_equiv_pos_as_xyz
  1  'x, y, z'
loop_
 _atom_site_type_symbol
 _atom_site_label
 _atom_site_symmetry_multiplicity
 _atom_site_fract_x
 _atom_site_fract_y
 _atom_site_fract_z
 _atom_site_occupancy
  Mn  Mn0  1  0.17411800  0.50000000  0.15554500  1
  Mn  Mn1  1  0.82777300  0.50000000  0.33107000  1
  Mn  Mn2  1  0.15619200  0.50000000  0.67954100  1
  Mn  Mn3  1  0.83092500  0.50000000  0.83711000  1
  Mn  Mn4  1  0.50387400  0.50000000  0.49156100  1
  Mn  Mn5  1  0.50472100  0.50000000  0.00871900  1
  Mn  Mn6  1  0.67411800  0.00000000  0.15554500  1
  Mn  Mn7  1  0.32777300  0.00000000  0.33107000  1
  Mn  Mn8  1  0.65619200  0.00000000  0.67954100  1
  Mn  Mn9  1  0.33092500  0.00000000  0.83711000  1
  Mn  Mn10  1  0.00387400  0.00000000  0.49156100  1
  Mn  Mn11  1  0.00472100  0.00000000  0.00871900  1
  O  O12  1  0.83294500  0.19427000  0.33310300  1
  O  O13  1  0.16646350  0.19592150  0.66504800  1
  O  O14  1  0.73119700  0.50000000  0.03878500  1
  O  O15  1  0.60325300  0.50000000  0.29478900  1
  O  O16  1  0.27250500  0.50000000  0.96644900  1
  O  O17  1  0.93087600  0.50000000  0.62769900  1
  O  O18  1  0.16646350  0.80407850  0.66504800  1
  O  O19  1  0.83294500  0.80573000  0.33310300  1
  O  O20  1  0.00179250  0.30579650  0.00048600  1
  O  O21  1  0.00179250  0.69420350  0.00048600  1
  O  O22  1  0.33294500  0.69427000  0.33310300  1
  O  O23  1  0.66646350  0.69592150  0.66504800  1
  O  O24  1  0.23119700  0.00000000  0.03878500  1
  O  O25  1  0.10325300  0.00000000  0.29478900  1
  O  O26  1  0.77250500  0.00000000  0.96644900  1
  O  O27  1  0.43087600  0.00000000  0.62769900  1
  O  O28  1  0.66646350  0.30407850  0.66504800  1
  O  O29  1  0.33294500  0.30573000  0.33310300  1
  O  O30  1  0.50179250  0.80579650  0.00048600  1
  O  O31  1  0.50179250  0.19420350  0.00048600  1
  F  F32  1  0.39536700  0.50000000  0.70406800  1
  F  F33  1  0.06679800  0.50000000  0.36738800  1
  F  F34  1  0.89536700  0.00000000  0.70406800  1
  F  F35  1  0.56679800  0.00000000  0.36738800  1
