# generated using pymatgen
data_NaLiFe2(SiO3)4
_symmetry_space_group_name_H-M   'P 1'
_cell_length_a   9.79011400
_cell_length_b   8.87354800
_cell_length_c   5.36311687
_cell_angle_alpha   90.00000000
_cell_angle_beta   108.88044356
_cell_angle_gamma   90.00000000
_symmetry_Int_Tables_number   1
_chemical_formula_structural   NaLiFe2(SiO3)4
_chemical_formula_sum   'Na2 Li2 Fe4 Si8 O24'
_cell_volume   440.84240000
_cell_formula_units_Z   2
loop_
 _symmetry_equiv_pos_site_id
 _symmetry_equiv_pos_as_xyz
  1  'x, y, z'
loop_
 _atom_site_type_symbol
 _atom_site_label
 _atom_site_symmetry_multiplicity
 _atom_site_fract_x
 _atom_site_fract_y
 _atom_site_fract_z
 _atom_site_occupancy
  Na  Na0  1  0.00000000  0.70595500  0.50000000  1
  Na  Na1  1  0.50000000  0.20595500  0.50000000  1
  Li  Li2  1  0.00000000  0.25372000  0.00000000  1
  Li  Li3  1  0.50000000  0.75372000  0.00000000  1
  Fe  Fe4  1  0.00000000  0.10285200  0.50000000  1
  Fe  Fe5  1  0.00000000  0.89922300  0.00000000  1
  Fe  Fe6  1  0.50000000  0.60285200  0.50000000  1
  Fe  Fe7  1  0.50000000  0.39922300  0.00000000  1
  Si  Si8  1  0.20618050  0.41208850  0.49873200  1
  Si  Si9  1  0.20749500  0.59056400  0.00153900  1
  Si  Si10  1  0.79381950  0.41208850  0.50126800  1
  Si  Si11  1  0.79250500  0.59056400  0.99846100  1
  Si  Si12  1  0.70618050  0.91208850  0.49873200  1
  Si  Si13  1  0.70749500  0.09056400  0.00153900  1
  Si  Si14  1  0.29381950  0.91208850  0.50126800  1
  Si  Si15  1  0.29250500  0.09056400  0.99846100  1
  O  O16  1  0.38425300  0.42113000  0.60726400  1
  O  O17  1  0.38603600  0.58586800  0.10562300  1
  O  O18  1  0.13389350  0.24695150  0.42704600  1
  O  O19  1  0.14759800  0.49794400  0.71852700  1
  O  O20  1  0.13973650  0.75798750  0.94465700  1
  O  O21  1  0.14756750  0.50658350  0.21886000  1
  O  O22  1  0.85240200  0.49794400  0.28147300  1
  O  O23  1  0.86610650  0.24695150  0.57295400  1
  O  O24  1  0.85243250  0.50658350  0.78114000  1
  O  O25  1  0.86026350  0.75798750  0.05534300  1
  O  O26  1  0.61574700  0.42113000  0.39273600  1
  O  O27  1  0.61396400  0.58586800  0.89437700  1
  O  O28  1  0.88425300  0.92113000  0.60726400  1
  O  O29  1  0.88603600  0.08586800  0.10562300  1
  O  O30  1  0.63389350  0.74695150  0.42704600  1
  O  O31  1  0.64759800  0.99794400  0.71852700  1
  O  O32  1  0.63973650  0.25798750  0.94465700  1
  O  O33  1  0.64756750  0.00658350  0.21886000  1
  O  O34  1  0.35240200  0.99794400  0.28147300  1
  O  O35  1  0.36610650  0.74695150  0.57295400  1
  O  O36  1  0.35243250  0.00658350  0.78114000  1
  O  O37  1  0.36026350  0.25798750  0.05534300  1
  O  O38  1  0.11574700  0.92113000  0.39273600  1
  O  O39  1  0.11396400  0.08586800  0.89437700  1
