# generated using pymatgen
data_Mn2O3F
_symmetry_space_group_name_H-M   'P 1'
_cell_length_a   6.33269800
_cell_length_b   6.65747400
_cell_length_c   15.16894900
_cell_angle_alpha   90.00000000
_cell_angle_beta   90.00000000
_cell_angle_gamma   90.00000000
_symmetry_Int_Tables_number   1
_chemical_formula_structural   Mn2O3F
_chemical_formula_sum   'Mn20 O30 F10'
_cell_volume   639.51943564
_cell_formula_units_Z   10
loop_
 _symmetry_equiv_pos_site_id
 _symmetry_equiv_pos_as_xyz
  1  'x, y, z'
loop_
 _atom_site_type_symbol
 _atom_site_label
 _atom_site_symmetry_multiplicity
 _atom_site_fract_x
 _atom_site_fract_y
 _atom_site_fract_z
 _atom_site_occupancy
  Mn  Mn0  1  0.50000000  0.48517600  0.79904400  1
  Mn  Mn1  1  0.50000000  0.50069100  0.59972700  1
  Mn  Mn2  1  0.50000000  0.50069100  0.40027300  1
  Mn  Mn3  1  0.50000000  0.48001500  0.00000000  1
  Mn  Mn4  1  0.50000000  0.48517600  0.20095600  1
  Mn  Mn5  1  0.50000000  0.01249500  0.89979400  1
  Mn  Mn6  1  0.50000000  0.97632700  0.50000000  1
  Mn  Mn7  1  0.50000000  0.01912200  0.69950800  1
  Mn  Mn8  1  0.50000000  0.01912200  0.30049200  1
  Mn  Mn9  1  0.50000000  0.01249500  0.10020600  1
  Mn  Mn10  1  0.00000000  0.98517600  0.79904400  1
  Mn  Mn11  1  0.00000000  0.00069100  0.59972700  1
  Mn  Mn12  1  0.00000000  0.00069100  0.40027300  1
  Mn  Mn13  1  0.00000000  0.98001500  0.00000000  1
  Mn  Mn14  1  0.00000000  0.98517600  0.20095600  1
  Mn  Mn15  1  0.00000000  0.51249500  0.89979400  1
  Mn  Mn16  1  0.00000000  0.47632700  0.50000000  1
  Mn  Mn17  1  0.00000000  0.51912200  0.69950800  1
  Mn  Mn18  1  0.00000000  0.51912200  0.30049200  1
  Mn  Mn19  1  0.00000000  0.51249500  0.10020600  1
  O  O20  1  0.50000000  0.30853100  0.30075200  1
  O  O21  1  0.50000000  0.30853100  0.69924800  1
  O  O22  1  0.50000000  0.30314400  0.90020700  1
  O  O23  1  0.50000000  0.30314400  0.09979300  1
  O  O24  1  0.30882150  0.99554350  0.40002000  1
  O  O25  1  0.30882150  0.99554350  0.59998000  1
  O  O26  1  0.30575850  0.00677150  0.79933000  1
  O  O27  1  0.30630400  0.00096100  0.00000000  1
  O  O28  1  0.30575850  0.00677150  0.20067000  1
  O  O29  1  0.69117850  0.99554350  0.40002000  1
  O  O30  1  0.69117850  0.99554350  0.59998000  1
  O  O31  1  0.69424150  0.00677150  0.79933000  1
  O  O32  1  0.69369600  0.00096100  0.00000000  1
  O  O33  1  0.69424150  0.00677150  0.20067000  1
  O  O34  1  0.50000000  0.68795200  0.50000000  1
  O  O35  1  0.00000000  0.80853100  0.30075200  1
  O  O36  1  0.00000000  0.80853100  0.69924800  1
  O  O37  1  0.00000000  0.80314400  0.90020700  1
  O  O38  1  0.00000000  0.80314400  0.09979300  1
  O  O39  1  0.80882150  0.49554350  0.40002000  1
  O  O40  1  0.80882150  0.49554350  0.59998000  1
  O  O41  1  0.80575850  0.50677150  0.79933000  1
  O  O42  1  0.80630400  0.50096100  0.00000000  1
  O  O43  1  0.80575850  0.50677150  0.20067000  1
  O  O44  1  0.19117850  0.49554350  0.40002000  1
  O  O45  1  0.19117850  0.49554350  0.59998000  1
  O  O46  1  0.19424150  0.50677150  0.79933000  1
  O  O47  1  0.19369600  0.50096100  0.00000000  1
  O  O48  1  0.19424150  0.50677150  0.20067000  1
  O  O49  1  0.00000000  0.18795200  0.50000000  1
  F  F50  1  0.50000000  0.27797300  0.50000000  1
  F  F51  1  0.50000000  0.71114200  0.70465500  1
  F  F52  1  0.50000000  0.69297300  0.89952600  1
  F  F53  1  0.50000000  0.71114200  0.29534500  1
  F  F54  1  0.50000000  0.69297300  0.10047400  1
  F  F55  1  0.00000000  0.77797300  0.50000000  1
  F  F56  1  0.00000000  0.21114200  0.70465500  1
  F  F57  1  0.00000000  0.19297300  0.89952600  1
  F  F58  1  0.00000000  0.21114200  0.29534500  1
  F  F59  1  0.00000000  0.19297300  0.10047400  1
