# generated using pymatgen
data_Li4Fe3Sn2Sb3O16
_symmetry_space_group_name_H-M   'P 1'
_cell_length_a   10.82350800
_cell_length_b   6.23920000
_cell_length_c   9.93564985
_cell_angle_alpha   90.00000000
_cell_angle_beta   90.78007804
_cell_angle_gamma   90.00000000
_symmetry_Int_Tables_number   1
_chemical_formula_structural   Li4Fe3Sn2Sb3O16
_chemical_formula_sum   'Li8 Fe6 Sn4 Sb6 O32'
_cell_volume   670.89255848
_cell_formula_units_Z   2
loop_
 _symmetry_equiv_pos_site_id
 _symmetry_equiv_pos_as_xyz
  1  'x, y, z'
loop_
 _atom_site_type_symbol
 _atom_site_label
 _atom_site_symmetry_multiplicity
 _atom_site_fract_x
 _atom_site_fract_y
 _atom_site_fract_z
 _atom_site_occupancy
  Li  Li0  1  0.66246900  0.00000000  0.88720800  1
  Li  Li1  1  0.98746000  0.00000000  0.98368700  1
  Li  Li2  1  0.99416600  0.00000000  0.50074500  1
  Li  Li3  1  0.82635000  0.50000000  0.40560700  1
  Li  Li4  1  0.16246900  0.50000000  0.88720800  1
  Li  Li5  1  0.48746000  0.50000000  0.98368700  1
  Li  Li6  1  0.49416600  0.50000000  0.50074500  1
  Li  Li7  1  0.32635000  0.00000000  0.40560700  1
  Fe  Fe8  1  0.83048800  0.00000000  0.21430900  1
  Fe  Fe9  1  0.91949250  0.74410350  0.71243700  1
  Fe  Fe10  1  0.91949250  0.25589650  0.71243700  1
  Fe  Fe11  1  0.33048800  0.50000000  0.21430900  1
  Fe  Fe12  1  0.41949250  0.24410350  0.71243700  1
  Fe  Fe13  1  0.41949250  0.75589650  0.71243700  1
  Sn  Sn14  1  0.67833500  0.00000000  0.50177600  1
  Sn  Sn15  1  0.84324100  0.50000000  0.97919100  1
  Sn  Sn16  1  0.17833500  0.50000000  0.50177600  1
  Sn  Sn17  1  0.34324100  0.00000000  0.97919100  1
  Sb  Sb18  1  0.58470200  0.24700800  0.21528300  1
  Sb  Sb19  1  0.58470200  0.75299200  0.21528300  1
  Sb  Sb20  1  0.67345100  0.50000000  0.71444700  1
  Sb  Sb21  1  0.08470200  0.74700800  0.21528300  1
  Sb  Sb22  1  0.08470200  0.25299200  0.21528300  1
  Sb  Sb23  1  0.17345100  0.00000000  0.71444700  1
  O  O24  1  0.59034750  0.26064650  0.59325500  1
  O  O25  1  0.51648600  0.00000000  0.33861400  1
  O  O26  1  0.66281500  0.00000000  0.10677800  1
  O  O27  1  0.50108300  0.50000000  0.31342300  1
  O  O28  1  0.51303600  0.50000000  0.80421900  1
  O  O29  1  0.59034750  0.73935350  0.59325500  1
  O  O30  1  0.73606500  0.22248200  0.33849700  1
  O  O31  1  0.73606500  0.77751800  0.33849700  1
  O  O32  1  0.66134900  0.50000000  0.10371800  1
  O  O33  1  0.84217100  0.00000000  0.59576200  1
  O  O34  1  0.75107000  0.71868400  0.84515900  1
  O  O35  1  0.75107000  0.28131600  0.84515900  1
  O  O36  1  0.82195300  0.50000000  0.60288000  1
  O  O37  1  0.92260850  0.75691450  0.10111600  1
  O  O38  1  0.98345600  0.50000000  0.84419200  1
  O  O39  1  0.92260850  0.24308550  0.10111600  1
  O  O40  1  0.09034750  0.76064650  0.59325500  1
  O  O41  1  0.01648600  0.50000000  0.33861400  1
  O  O42  1  0.16281500  0.50000000  0.10677800  1
  O  O43  1  0.00108300  0.00000000  0.31342300  1
  O  O44  1  0.01303600  0.00000000  0.80421900  1
  O  O45  1  0.09034750  0.23935350  0.59325500  1
  O  O46  1  0.23606500  0.72248200  0.33849700  1
  O  O47  1  0.23606500  0.27751800  0.33849700  1
  O  O48  1  0.16134900  0.00000000  0.10371800  1
  O  O49  1  0.34217100  0.50000000  0.59576200  1
  O  O50  1  0.25107000  0.21868400  0.84515900  1
  O  O51  1  0.25107000  0.78131600  0.84515900  1
  O  O52  1  0.32195300  0.00000000  0.60288000  1
  O  O53  1  0.42260850  0.25691450  0.10111600  1
  O  O54  1  0.48345600  0.00000000  0.84419200  1
  O  O55  1  0.42260850  0.74308550  0.10111600  1
