# generated using pymatgen
data_NiH12S2(NO5)2
_symmetry_space_group_name_H-M   'P 1'
_cell_length_a   6.49246479
_cell_length_b   6.67255713
_cell_length_c   6.86322865
_cell_angle_alpha   88.99395113
_cell_angle_beta   112.65000064
_cell_angle_gamma   110.77794442
_symmetry_Int_Tables_number   1
_chemical_formula_structural   NiH12S2(NO5)2
_chemical_formula_sum   'Ni1 H12 S2 N2 O10'
_cell_volume   254.09327778
_cell_formula_units_Z   1
loop_
 _symmetry_equiv_pos_site_id
 _symmetry_equiv_pos_as_xyz
  1  'x, y, z'
loop_
 _atom_site_type_symbol
 _atom_site_label
 _atom_site_symmetry_multiplicity
 _atom_site_fract_x
 _atom_site_fract_y
 _atom_site_fract_z
 _atom_site_occupancy
  Ni  Ni0  1  0.00000000  0.00000000  0.00000000  1
  H  H1  1  0.79358150  0.29242700  0.04867225  1
  H  H2  1  0.20641850  0.70757300  0.95132775  1
  H  H3  1  0.75647150  0.69880025  0.18409175  1
  H  H4  1  0.24352850  0.30119975  0.81590825  1
  H  H5  1  0.81685950  0.29695975  0.82693175  1
  H  H6  1  0.18314050  0.70304025  0.17306825  1
  H  H7  1  0.74816700  0.92797800  0.23808900  1
  H  H8  1  0.25183300  0.07202200  0.76191100  1
  H  H9  1  0.72897700  0.67331600  0.67263050  1
  H  H10  1  0.27102300  0.32668400  0.32736950  1
  H  H11  1  0.72585400  0.91051475  0.59343450  1
  H  H12  1  0.27414600  0.08948525  0.40656550  1
  S  S13  1  0.60366400  0.27506875  0.35796050  1
  S  S14  1  0.39633600  0.72493125  0.64203950  1
  N  N15  1  0.30185000  0.19116375  0.29568150  1
  N  N16  1  0.69815000  0.80883625  0.70431850  1
  O  O17  1  0.64434450  0.07337900  0.35278075  1
  O  O18  1  0.35565550  0.92662100  0.64721925  1
  O  O19  1  0.84174350  0.85696775  0.20251875  1
  O  O20  1  0.15825650  0.14303225  0.79748125  1
  O  O21  1  0.64500750  0.40312500  0.19123775  1
  O  O22  1  0.35499250  0.59687500  0.80876225  1
  O  O23  1  0.87411350  0.25158000  0.96945175  1
  O  O24  1  0.12588650  0.74842000  0.03054825  1
  O  O25  1  0.72725350  0.40091925  0.57209275  1
  O  O26  1  0.27274650  0.59908075  0.42790725  1
