# generated using pymatgen
data_Fe10O9F11
_symmetry_space_group_name_H-M   'P 1'
_cell_length_a   6.66280000
_cell_length_b   6.82789000
_cell_length_c   15.48464088
_cell_angle_alpha   90.00000000
_cell_angle_beta   90.36828400
_cell_angle_gamma   90.00000000
_symmetry_Int_Tables_number   1
_chemical_formula_structural   Fe10O9F11
_chemical_formula_sum   'Fe20 O18 F22'
_cell_volume   704.42613249
_cell_formula_units_Z   2
loop_
 _symmetry_equiv_pos_site_id
 _symmetry_equiv_pos_as_xyz
  1  'x, y, z'
loop_
 _atom_site_type_symbol
 _atom_site_label
 _atom_site_symmetry_multiplicity
 _atom_site_fract_x
 _atom_site_fract_y
 _atom_site_fract_z
 _atom_site_occupancy
  Fe  Fe0  1  0.50000000  0.50050700  0.00000000  1
  Fe  Fe1  1  0.03374750  0.99052650  0.79302400  1
  Fe  Fe2  1  0.96623350  0.97745650  0.59803800  1
  Fe  Fe3  1  0.03376650  0.97745650  0.40196200  1
  Fe  Fe4  1  0.96625250  0.99052650  0.20697600  1
  Fe  Fe5  1  0.48829250  0.99608150  0.90718300  1
  Fe  Fe6  1  0.50000000  0.01858800  0.50000000  1
  Fe  Fe7  1  0.50319450  0.02388750  0.70138600  1
  Fe  Fe8  1  0.49680550  0.02388750  0.29861400  1
  Fe  Fe9  1  0.51170750  0.99608150  0.09281700  1
  Fe  Fe10  1  0.00000000  0.00050700  0.00000000  1
  Fe  Fe11  1  0.53374750  0.49052650  0.79302400  1
  Fe  Fe12  1  0.46623350  0.47745650  0.59803800  1
  Fe  Fe13  1  0.53376650  0.47745650  0.40196200  1
  Fe  Fe14  1  0.46625250  0.49052650  0.20697600  1
  Fe  Fe15  1  0.98829250  0.49608150  0.90718300  1
  Fe  Fe16  1  0.00000000  0.51858800  0.50000000  1
  Fe  Fe17  1  0.00319450  0.52388750  0.70138600  1
  Fe  Fe18  1  0.99680550  0.52388750  0.29861400  1
  Fe  Fe19  1  0.01170750  0.49608150  0.09281700  1
  O  O20  1  0.49957600  0.30975600  0.69873500  1
  O  O21  1  0.50000000  0.30565100  0.50000000  1
  O  O22  1  0.50042400  0.30975600  0.30126500  1
  O  O23  1  0.69425900  0.99698800  0.99747200  1
  O  O24  1  0.67801700  0.99903600  0.60025400  1
  O  O25  1  0.67979850  0.00021350  0.20110500  1
  O  O26  1  0.30574100  0.99698800  0.00252800  1
  O  O27  1  0.32020150  0.00021350  0.79889500  1
  O  O28  1  0.32198300  0.99903600  0.39974600  1
  O  O29  1  0.99957600  0.80975600  0.69873500  1
  O  O30  1  0.00000000  0.80565100  0.50000000  1
  O  O31  1  0.00042400  0.80975600  0.30126500  1
  O  O32  1  0.19425900  0.49698800  0.99747200  1
  O  O33  1  0.17801700  0.49903600  0.60025400  1
  O  O34  1  0.17979850  0.50021350  0.20110500  1
  O  O35  1  0.80574100  0.49698800  0.00252800  1
  O  O36  1  0.82020150  0.50021350  0.79889500  1
  O  O37  1  0.82198300  0.49903600  0.39974600  1
  F  F38  1  0.50798100  0.29926000  0.89081000  1
  F  F39  1  0.49201900  0.29926000  0.10919000  1
  F  F40  1  0.71165700  0.00229100  0.79875700  1
  F  F41  1  0.70766550  0.00318650  0.40031000  1
  F  F42  1  0.29233450  0.00318650  0.59969000  1
  F  F43  1  0.28834300  0.00229100  0.20124300  1
  F  F44  1  0.50708000  0.69591300  0.88830600  1
  F  F45  1  0.50000000  0.69286100  0.50000000  1
  F  F46  1  0.49913050  0.69660050  0.69688100  1
  F  F47  1  0.49292000  0.69591300  0.11169400  1
  F  F48  1  0.50086950  0.69660050  0.30311900  1
  F  F49  1  0.00798100  0.79926000  0.89081000  1
  F  F50  1  0.99201900  0.79926000  0.10919000  1
  F  F51  1  0.21165700  0.50229100  0.79875700  1
  F  F52  1  0.20766550  0.50318650  0.40031000  1
  F  F53  1  0.79233450  0.50318650  0.59969000  1
  F  F54  1  0.78834300  0.50229100  0.20124300  1
  F  F55  1  0.00708000  0.19591300  0.88830600  1
  F  F56  1  0.00000000  0.19286100  0.50000000  1
  F  F57  1  0.99913050  0.19660050  0.69688100  1
  F  F58  1  0.99292000  0.19591300  0.11169400  1
  F  F59  1  0.00086950  0.19660050  0.30311900  1
