# generated using pymatgen
data_Li4Cr3(FeO4)3
_symmetry_space_group_name_H-M   'P 1'
_cell_length_a   5.69179600
_cell_length_b   8.97692400
_cell_length_c   17.03665600
_cell_angle_alpha   90.00000000
_cell_angle_beta   90.00000000
_cell_angle_gamma   90.00000000
_symmetry_Int_Tables_number   1
_chemical_formula_structural   Li4Cr3(FeO4)3
_chemical_formula_sum   'Li16 Cr12 Fe12 O48'
_cell_volume   870.48487369
_cell_formula_units_Z   4
loop_
 _symmetry_equiv_pos_site_id
 _symmetry_equiv_pos_as_xyz
  1  'x, y, z'
loop_
 _atom_site_type_symbol
 _atom_site_label
 _atom_site_symmetry_multiplicity
 _atom_site_fract_x
 _atom_site_fract_y
 _atom_site_fract_z
 _atom_site_occupancy
  Li  Li0  1  0.75000000  0.25000000  0.07990000  1
  Li  Li1  1  0.75000000  0.25000000  0.42010000  1
  Li  Li2  1  0.00000000  0.00000000  0.33034600  1
  Li  Li3  1  0.50000000  0.00000000  0.16965400  1
  Li  Li4  1  0.75000000  0.75000000  0.57990000  1
  Li  Li5  1  0.75000000  0.75000000  0.92010000  1
  Li  Li6  1  0.00000000  0.50000000  0.83034600  1
  Li  Li7  1  0.50000000  0.50000000  0.66965400  1
  Li  Li8  1  0.25000000  0.25000000  0.57990000  1
  Li  Li9  1  0.25000000  0.25000000  0.92010000  1
  Li  Li10  1  0.50000000  0.00000000  0.83034600  1
  Li  Li11  1  0.00000000  0.00000000  0.66965400  1
  Li  Li12  1  0.25000000  0.75000000  0.07990000  1
  Li  Li13  1  0.25000000  0.75000000  0.42010000  1
  Li  Li14  1  0.50000000  0.50000000  0.33034600  1
  Li  Li15  1  0.00000000  0.50000000  0.16965400  1
  Cr  Cr16  1  0.50000000  0.00000000  0.33561100  1
  Cr  Cr17  1  0.00000000  0.00000000  0.16438900  1
  Cr  Cr18  1  0.50000000  0.00000000  0.00000000  1
  Cr  Cr19  1  0.50000000  0.50000000  0.83561100  1
  Cr  Cr20  1  0.00000000  0.50000000  0.66438900  1
  Cr  Cr21  1  0.50000000  0.50000000  0.50000000  1
  Cr  Cr22  1  0.00000000  0.00000000  0.83561100  1
  Cr  Cr23  1  0.50000000  0.00000000  0.66438900  1
  Cr  Cr24  1  0.00000000  0.00000000  0.50000000  1
  Cr  Cr25  1  0.00000000  0.50000000  0.33561100  1
  Cr  Cr26  1  0.50000000  0.50000000  0.16438900  1
  Cr  Cr27  1  0.00000000  0.50000000  0.00000000  1
  Fe  Fe28  1  0.75000000  0.25000000  0.25000000  1
  Fe  Fe29  1  0.75000000  0.75000000  0.41448500  1
  Fe  Fe30  1  0.75000000  0.75000000  0.08551500  1
  Fe  Fe31  1  0.75000000  0.75000000  0.75000000  1
  Fe  Fe32  1  0.75000000  0.25000000  0.91448500  1
  Fe  Fe33  1  0.75000000  0.25000000  0.58551500  1
  Fe  Fe34  1  0.25000000  0.25000000  0.75000000  1
  Fe  Fe35  1  0.25000000  0.75000000  0.91448500  1
  Fe  Fe36  1  0.25000000  0.75000000  0.58551500  1
  Fe  Fe37  1  0.25000000  0.75000000  0.25000000  1
  Fe  Fe38  1  0.25000000  0.25000000  0.41448500  1
  Fe  Fe39  1  0.25000000  0.25000000  0.08551500  1
  O  O40  1  0.75000000  0.46933000  0.25000000  1
  O  O41  1  0.23975900  0.02772900  0.41324300  1
  O  O42  1  0.99025800  0.27643200  0.33669700  1
  O  O43  1  0.26024100  0.02772900  0.08675700  1
  O  O44  1  0.00974200  0.72356800  0.33669700  1
  O  O45  1  0.49025800  0.72356800  0.16330300  1
  O  O46  1  0.50000000  0.77895200  0.00000000  1
  O  O47  1  0.76024100  0.97227100  0.41324300  1
  O  O48  1  0.75000000  0.03067000  0.25000000  1
  O  O49  1  0.50974200  0.27643200  0.16330300  1
  O  O50  1  0.73975900  0.97227100  0.08675700  1
  O  O51  1  0.50000000  0.22104800  0.00000000  1
  O  O52  1  0.75000000  0.96933000  0.75000000  1
  O  O53  1  0.23975900  0.52772900  0.91324300  1
  O  O54  1  0.99025800  0.77643200  0.83669700  1
  O  O55  1  0.26024100  0.52772900  0.58675700  1
  O  O56  1  0.00974200  0.22356800  0.83669700  1
  O  O57  1  0.49025800  0.22356800  0.66330300  1
  O  O58  1  0.50000000  0.27895200  0.50000000  1
  O  O59  1  0.76024100  0.47227100  0.91324300  1
  O  O60  1  0.75000000  0.53067000  0.75000000  1
  O  O61  1  0.50974200  0.77643200  0.66330300  1
  O  O62  1  0.73975900  0.47227100  0.58675700  1
  O  O63  1  0.50000000  0.72104800  0.50000000  1
  O  O64  1  0.25000000  0.46933000  0.75000000  1
  O  O65  1  0.73975900  0.02772900  0.91324300  1
  O  O66  1  0.49025800  0.27643200  0.83669700  1
  O  O67  1  0.76024100  0.02772900  0.58675700  1
  O  O68  1  0.50974200  0.72356800  0.83669700  1
  O  O69  1  0.99025800  0.72356800  0.66330300  1
  O  O70  1  0.00000000  0.77895200  0.50000000  1
  O  O71  1  0.26024100  0.97227100  0.91324300  1
  O  O72  1  0.25000000  0.03067000  0.75000000  1
  O  O73  1  0.00974200  0.27643200  0.66330300  1
  O  O74  1  0.23975900  0.97227100  0.58675700  1
  O  O75  1  0.00000000  0.22104800  0.50000000  1
  O  O76  1  0.25000000  0.96933000  0.25000000  1
  O  O77  1  0.73975900  0.52772900  0.41324300  1
  O  O78  1  0.49025800  0.77643200  0.33669700  1
  O  O79  1  0.76024100  0.52772900  0.08675700  1
  O  O80  1  0.50974200  0.22356800  0.33669700  1
  O  O81  1  0.99025800  0.22356800  0.16330300  1
  O  O82  1  0.00000000  0.27895200  0.00000000  1
  O  O83  1  0.26024100  0.47227100  0.41324300  1
  O  O84  1  0.25000000  0.53067000  0.25000000  1
  O  O85  1  0.00974200  0.77643200  0.16330300  1
  O  O86  1  0.23975900  0.47227100  0.08675700  1
  O  O87  1  0.00000000  0.72104800  0.00000000  1
