# generated using pymatgen
data_Li4Mn3Nb(PO4)4
_symmetry_space_group_name_H-M   'P 1'
_cell_length_a   4.79034900
_cell_length_b   6.23068100
_cell_length_c   10.66667123
_cell_angle_alpha   90.00000000
_cell_angle_beta   90.01181188
_cell_angle_gamma   90.00000000
_symmetry_Int_Tables_number   1
_chemical_formula_structural   Li4Mn3Nb(PO4)4
_chemical_formula_sum   'Li4 Mn3 Nb1 P4 O16'
_cell_volume   318.36958531
_cell_formula_units_Z   1
loop_
 _symmetry_equiv_pos_site_id
 _symmetry_equiv_pos_as_xyz
  1  'x, y, z'
loop_
 _atom_site_type_symbol
 _atom_site_label
 _atom_site_symmetry_multiplicity
 _atom_site_fract_x
 _atom_site_fract_y
 _atom_site_fract_z
 _atom_site_occupancy
  Li  Li0  1  0.99999700  0.75146300  0.99791400  1
  Li  Li1  1  0.99999700  0.24853700  0.99791400  1
  Li  Li2  1  0.50090300  0.25305300  0.49933200  1
  Li  Li3  1  0.50090300  0.74694700  0.49933200  1
  Mn  Mn4  1  0.02817200  0.00000000  0.71940100  1
  Mn  Mn5  1  0.47615500  0.00000000  0.21940100  1
  Mn  Mn6  1  0.52847900  0.50000000  0.78141900  1
  Nb  Nb7  1  0.97216700  0.50000000  0.27690400  1
  P  P8  1  0.09080800  0.50000000  0.59482800  1
  P  P9  1  0.41160100  0.50000000  0.08924300  1
  P  P10  1  0.59016000  0.00000000  0.90789500  1
  P  P11  1  0.90683900  0.00000000  0.41091300  1
  O  O12  1  0.21476800  0.50000000  0.45966700  1
  O  O13  1  0.22291600  0.69942500  0.66325600  1
  O  O14  1  0.22291600  0.30057500  0.66325600  1
  O  O15  1  0.22751300  0.00000000  0.40293700  1
  O  O16  1  0.26917200  0.00000000  0.90357700  1
  O  O17  1  0.28294900  0.70220300  0.15792900  1
  O  O18  1  0.28294900  0.29779700  0.15792900  1
  O  O19  1  0.28585200  0.50000000  0.95503100  1
  O  O20  1  0.71129800  0.00000000  0.04378400  1
  O  O21  1  0.72233200  0.19928500  0.83947700  1
  O  O22  1  0.72233200  0.80071500  0.83947700  1
  O  O23  1  0.73274300  0.50000000  0.08849200  1
  O  O24  1  0.77002300  0.50000000  0.59863500  1
  O  O25  1  0.76742500  0.19613900  0.34254800  1
  O  O26  1  0.76742500  0.80386100  0.34254800  1
  O  O27  1  0.79120600  0.00000000  0.54696200  1
