# generated using pymatgen
data_Li5Mn6(BO3)6
_symmetry_space_group_name_H-M   'P 1'
_cell_length_a   16.46745800
_cell_length_b   6.36567400
_cell_length_c   14.38452104
_cell_angle_alpha   90.00000000
_cell_angle_beta   90.59554420
_cell_angle_gamma   90.00000000
_symmetry_Int_Tables_number   1
_chemical_formula_structural   Li5Mn6(BO3)6
_chemical_formula_sum   'Li20 Mn24 B24 O72'
_cell_volume   1507.79709792
_cell_formula_units_Z   4
loop_
 _symmetry_equiv_pos_site_id
 _symmetry_equiv_pos_as_xyz
  1  'x, y, z'
loop_
 _atom_site_type_symbol
 _atom_site_label
 _atom_site_symmetry_multiplicity
 _atom_site_fract_x
 _atom_site_fract_y
 _atom_site_fract_z
 _atom_site_occupancy
  Li  Li0  1  0.89543400  0.00000000  0.99005900  1
  Li  Li1  1  0.92118300  0.00000000  0.35840700  1
  Li  Li2  1  0.68495800  0.00000000  0.14859200  1
  Li  Li3  1  0.67032800  0.00000000  0.85806200  1
  Li  Li4  1  0.64478900  0.00000000  0.49173000  1
  Li  Li5  1  0.93524800  0.50000000  0.64939500  1
  Li  Li6  1  0.91963600  0.50000000  0.35888200  1
  Li  Li7  1  0.89600100  0.50000000  0.99068600  1
  Li  Li8  1  0.67045700  0.50000000  0.85900000  1
  Li  Li9  1  0.64700300  0.50000000  0.48835400  1
  Li  Li10  1  0.39543400  0.50000000  0.99005900  1
  Li  Li11  1  0.42118300  0.50000000  0.35840700  1
  Li  Li12  1  0.18495800  0.50000000  0.14859200  1
  Li  Li13  1  0.17032800  0.50000000  0.85806200  1
  Li  Li14  1  0.14478900  0.50000000  0.49173000  1
  Li  Li15  1  0.43524800  0.00000000  0.64939500  1
  Li  Li16  1  0.41963600  0.00000000  0.35888200  1
  Li  Li17  1  0.39600100  0.00000000  0.99068600  1
  Li  Li18  1  0.17045700  0.00000000  0.85900000  1
  Li  Li19  1  0.14700300  0.00000000  0.48835400  1
  Mn  Mn20  1  0.57169800  0.74712300  0.01067200  1
  Mn  Mn21  1  0.58882550  0.74788250  0.30969700  1
  Mn  Mn22  1  0.82181600  0.24581800  0.51080900  1
  Mn  Mn23  1  0.83870250  0.24839450  0.80954300  1
  Mn  Mn24  1  0.59085950  0.74751350  0.68050500  1
  Mn  Mn25  1  0.84061250  0.25227650  0.18068600  1
  Mn  Mn26  1  0.84061250  0.74772350  0.18068600  1
  Mn  Mn27  1  0.59085950  0.25248650  0.68050500  1
  Mn  Mn28  1  0.83870250  0.75160550  0.80954300  1
  Mn  Mn29  1  0.82181600  0.75418200  0.51080900  1
  Mn  Mn30  1  0.58882550  0.25211750  0.30969700  1
  Mn  Mn31  1  0.57169800  0.25287700  0.01067200  1
  Mn  Mn32  1  0.07169800  0.24712300  0.01067200  1
  Mn  Mn33  1  0.08882550  0.24788250  0.30969700  1
  Mn  Mn34  1  0.32181600  0.74581800  0.51080900  1
  Mn  Mn35  1  0.33870250  0.74839450  0.80954300  1
  Mn  Mn36  1  0.09085950  0.24751350  0.68050500  1
  Mn  Mn37  1  0.34061250  0.75227650  0.18068600  1
  Mn  Mn38  1  0.34061250  0.24772350  0.18068600  1
  Mn  Mn39  1  0.09085950  0.75248650  0.68050500  1
  Mn  Mn40  1  0.33870250  0.25160550  0.80954300  1
  Mn  Mn41  1  0.32181600  0.25418200  0.51080900  1
  Mn  Mn42  1  0.08882550  0.75211750  0.30969700  1
  Mn  Mn43  1  0.07169800  0.75287700  0.01067200  1
  B  B44  1  0.75162650  0.75448250  0.99625300  1
  B  B45  1  0.75019600  0.00000000  0.33501300  1
  B  B46  1  0.50014100  0.50000000  0.83730500  1
  B  B47  1  0.99603500  0.00000000  0.16633800  1
  B  B48  1  0.75162650  0.24551750  0.99625300  1
  B  B49  1  0.50170600  0.75477700  0.49643000  1
  B  B50  1  0.99894800  0.50000000  0.16749500  1
  B  B51  1  0.74922500  0.50000000  0.66765500  1
  B  B52  1  0.74585000  0.00000000  0.66624600  1
  B  B53  1  0.50079700  0.00000000  0.83633700  1
  B  B54  1  0.75101300  0.50000000  0.33953800  1
  B  B55  1  0.50170600  0.24522300  0.49643000  1
  B  B56  1  0.25162650  0.25448250  0.99625300  1
  B  B57  1  0.25019600  0.50000000  0.33501300  1
  B  B58  1  0.00014100  0.00000000  0.83730500  1
  B  B59  1  0.49603500  0.50000000  0.16633800  1
  B  B60  1  0.25162650  0.74551750  0.99625300  1
  B  B61  1  0.00170600  0.25477700  0.49643000  1
  B  B62  1  0.49894800  0.00000000  0.16749500  1
  B  B63  1  0.24922500  0.00000000  0.66765500  1
  B  B64  1  0.24585000  0.50000000  0.66624600  1
  B  B65  1  0.00079700  0.50000000  0.83633700  1
  B  B66  1  0.25101300  0.00000000  0.33953800  1
  B  B67  1  0.00170600  0.74522300  0.49643000  1
  O  O68  1  0.91806300  0.00000000  0.12791300  1
  O  O69  1  0.75680200  0.00000000  0.76289400  1
  O  O70  1  0.81917900  0.00000000  0.28073200  1
  O  O71  1  0.81278800  0.00000000  0.60977100  1
  O  O72  1  0.75602600  0.00000000  0.43094800  1
  O  O73  1  0.92168800  0.00000000  0.80309500  1
  O  O74  1  0.57809400  0.74983500  0.45508900  1
  O  O75  1  0.93202400  0.24941000  0.44001800  1
  O  O76  1  0.68189900  0.75104500  0.93981300  1
  O  O77  1  0.82801050  0.25265950  0.95489900  1
  O  O78  1  0.74434650  0.76862150  0.09088400  1
  O  O79  1  0.99442550  0.26858250  0.59111700  1
  O  O80  1  0.56911700  0.00000000  0.78097400  1
  O  O81  1  0.56809800  0.00000000  0.11245900  1
  O  O82  1  0.50765100  0.00000000  0.93238300  1
  O  O83  1  0.67434700  0.00000000  0.29081800  1
  O  O84  1  0.50840100  0.00000000  0.26421100  1
  O  O85  1  0.92467800  0.50000000  0.79277500  1
  O  O86  1  0.92190100  0.50000000  0.12776300  1
  O  O87  1  0.81689000  0.50000000  0.28007400  1
  O  O88  1  0.81880900  0.50000000  0.61373000  1
  O  O89  1  0.75813900  0.50000000  0.76450100  1
  O  O90  1  0.76374600  0.50000000  0.43522800  1
  O  O91  1  0.66776200  0.00000000  0.62822800  1
  O  O92  1  0.99442550  0.73141750  0.59111700  1
  O  O93  1  0.74434650  0.23137850  0.09088400  1
  O  O94  1  0.82801050  0.74734050  0.95489900  1
  O  O95  1  0.68189900  0.24895500  0.93981300  1
  O  O96  1  0.93202400  0.75059000  0.44001800  1
  O  O97  1  0.57809400  0.25016500  0.45508900  1
  O  O98  1  0.56694100  0.50000000  0.77915200  1
  O  O99  1  0.67237600  0.50000000  0.62726800  1
  O  O100  1  0.56327700  0.50000000  0.11056800  1
  O  O101  1  0.50679900  0.50000000  0.26312500  1
  O  O102  1  0.51161500  0.50000000  0.93301300  1
  O  O103  1  0.67206800  0.50000000  0.30649400  1
  O  O104  1  0.41806300  0.50000000  0.12791300  1
  O  O105  1  0.25680200  0.50000000  0.76289400  1
  O  O106  1  0.31917900  0.50000000  0.28073200  1
  O  O107  1  0.31278800  0.50000000  0.60977100  1
  O  O108  1  0.25602600  0.50000000  0.43094800  1
  O  O109  1  0.42168800  0.50000000  0.80309500  1
  O  O110  1  0.07809400  0.24983500  0.45508900  1
  O  O111  1  0.43202400  0.74941000  0.44001800  1
  O  O112  1  0.18189900  0.25104500  0.93981300  1
  O  O113  1  0.32801050  0.75265950  0.95489900  1
  O  O114  1  0.24434650  0.26862150  0.09088400  1
  O  O115  1  0.49442550  0.76858250  0.59111700  1
  O  O116  1  0.06911700  0.50000000  0.78097400  1
  O  O117  1  0.06809800  0.50000000  0.11245900  1
  O  O118  1  0.00765100  0.50000000  0.93238300  1
  O  O119  1  0.17434700  0.50000000  0.29081800  1
  O  O120  1  0.00840100  0.50000000  0.26421100  1
  O  O121  1  0.42467800  0.00000000  0.79277500  1
  O  O122  1  0.42190100  0.00000000  0.12776300  1
  O  O123  1  0.31689000  0.00000000  0.28007400  1
  O  O124  1  0.31880900  0.00000000  0.61373000  1
  O  O125  1  0.25813900  0.00000000  0.76450100  1
  O  O126  1  0.26374600  0.00000000  0.43522800  1
  O  O127  1  0.16776200  0.50000000  0.62822800  1
  O  O128  1  0.49442550  0.23141750  0.59111700  1
  O  O129  1  0.24434650  0.73137850  0.09088400  1
  O  O130  1  0.32801050  0.24734050  0.95489900  1
  O  O131  1  0.18189900  0.74895500  0.93981300  1
  O  O132  1  0.43202400  0.25059000  0.44001800  1
  O  O133  1  0.07809400  0.75016500  0.45508900  1
  O  O134  1  0.06694100  0.00000000  0.77915200  1
  O  O135  1  0.17237600  0.00000000  0.62726800  1
  O  O136  1  0.06327700  0.00000000  0.11056800  1
  O  O137  1  0.00679900  0.00000000  0.26312500  1
  O  O138  1  0.01161500  0.00000000  0.93301300  1
  O  O139  1  0.17206800  0.00000000  0.30649400  1
