# generated using pymatgen
data_Na3MnO3
_symmetry_space_group_name_H-M   'P 1'
_cell_length_a   9.71242350
_cell_length_b   9.71242350
_cell_length_c   4.36202800
_cell_angle_alpha   90.00000000
_cell_angle_beta   90.00000000
_cell_angle_gamma   90.00000000
_symmetry_Int_Tables_number   1
_chemical_formula_structural   Na3MnO3
_chemical_formula_sum   'Na12 Mn4 O12'
_cell_volume   411.47520590
_cell_formula_units_Z   4
loop_
 _symmetry_equiv_pos_site_id
 _symmetry_equiv_pos_as_xyz
  1  'x, y, z'
loop_
 _atom_site_type_symbol
 _atom_site_label
 _atom_site_symmetry_multiplicity
 _atom_site_fract_x
 _atom_site_fract_y
 _atom_site_fract_z
 _atom_site_occupancy
  Na  Na0  1  0.83954550  0.16045450  0.50000000  1
  Na  Na1  1  0.33954550  0.33954550  0.00000000  1
  Na  Na2  1  0.66045450  0.66045450  0.00000000  1
  Na  Na3  1  0.16045450  0.83954550  0.50000000  1
  Na  Na4  1  0.63371300  0.11791900  0.00000000  1
  Na  Na5  1  0.38208100  0.13371300  0.50000000  1
  Na  Na6  1  0.88208100  0.36628700  0.00000000  1
  Na  Na7  1  0.13371300  0.38208100  0.50000000  1
  Na  Na8  1  0.86628700  0.61791900  0.50000000  1
  Na  Na9  1  0.11791900  0.63371300  0.00000000  1
  Na  Na10  1  0.61791900  0.86628700  0.50000000  1
  Na  Na11  1  0.36628700  0.88208100  0.00000000  1
  Mn  Mn12  1  0.39031500  0.60968500  0.50000000  1
  Mn  Mn13  1  0.89031500  0.89031500  0.00000000  1
  Mn  Mn14  1  0.10968500  0.10968500  0.00000000  1
  Mn  Mn15  1  0.60968500  0.39031500  0.50000000  1
  O  O16  1  0.90593750  0.09406250  0.00000000  1
  O  O17  1  0.40593750  0.40593750  0.50000000  1
  O  O18  1  0.59406250  0.59406250  0.50000000  1
  O  O19  1  0.09406250  0.90593750  0.00000000  1
  O  O20  1  0.30413900  0.10496300  0.00000000  1
  O  O21  1  0.60496300  0.19586100  0.50000000  1
  O  O22  1  0.10496300  0.30413900  0.00000000  1
  O  O23  1  0.80413900  0.39503700  0.50000000  1
  O  O24  1  0.19586100  0.60496300  0.50000000  1
  O  O25  1  0.89503700  0.69586100  0.00000000  1
  O  O26  1  0.39503700  0.80413900  0.50000000  1
  O  O27  1  0.69586100  0.89503700  0.00000000  1
