# generated using pymatgen
data_LiTiV2O6
_symmetry_space_group_name_H-M   'P 1'
_cell_length_a   12.54719310
_cell_length_b   3.02463457
_cell_length_c   6.02511660
_cell_angle_alpha   90.00000000
_cell_angle_beta   102.82076524
_cell_angle_gamma   90.00000000
_symmetry_Int_Tables_number   1
_chemical_formula_structural   LiTiV2O6
_chemical_formula_sum   'Li2 Ti2 V4 O12'
_cell_volume   222.95658153
_cell_formula_units_Z   2
loop_
 _symmetry_equiv_pos_site_id
 _symmetry_equiv_pos_as_xyz
  1  'x, y, z'
loop_
 _atom_site_type_symbol
 _atom_site_label
 _atom_site_symmetry_multiplicity
 _atom_site_fract_x
 _atom_site_fract_y
 _atom_site_fract_z
 _atom_site_occupancy
  Li  Li0  1  0.33102400  0.00000000  0.16583700  1
  Li  Li1  1  0.83102400  0.50000000  0.16583700  1
  Ti  Ti2  1  0.14860350  0.50000000  0.36873400  1
  Ti  Ti3  1  0.64860350  0.00000000  0.36873400  1
  V  V4  1  0.01121450  0.00000000  0.97361900  1
  V  V5  1  0.33556050  0.00000000  0.66200300  1
  V  V6  1  0.51121450  0.50000000  0.97361900  1
  V  V7  1  0.83556050  0.50000000  0.66200300  1
  O  O8  1  0.00133800  0.50000000  0.20405100  1
  O  O9  1  0.16421350  0.00000000  0.56616600  1
  O  O10  1  0.35145600  0.50000000  0.90250850  1
  O  O11  1  0.15750150  0.00000000  0.12634000  1
  O  O12  1  0.31353400  0.50000000  0.42652650  1
  O  O13  1  0.00053700  0.50000000  0.76623550  1
  O  O14  1  0.50133800  0.00000000  0.20405100  1
  O  O15  1  0.66421350  0.50000000  0.56616600  1
  O  O16  1  0.85145600  0.00000000  0.90250850  1
  O  O17  1  0.65750150  0.50000000  0.12634000  1
  O  O18  1  0.81353400  0.00000000  0.42652650  1
  O  O19  1  0.50053700  0.00000000  0.76623550  1
