# generated using pymatgen
data_Li2TiFe3O8
_symmetry_space_group_name_H-M   'P 1'
_cell_length_a   5.98720210
_cell_length_b   5.98720210
_cell_length_c   14.65863862
_cell_angle_alpha   90.00000000
_cell_angle_beta   90.00000000
_cell_angle_gamma   120.00000000
_symmetry_Int_Tables_number   1
_chemical_formula_structural   Li2TiFe3O8
_chemical_formula_sum   'Li6 Ti3 Fe9 O24'
_cell_volume   455.06360913
_cell_formula_units_Z   3
loop_
 _symmetry_equiv_pos_site_id
 _symmetry_equiv_pos_as_xyz
  1  'x, y, z'
loop_
 _atom_site_type_symbol
 _atom_site_label
 _atom_site_symmetry_multiplicity
 _atom_site_fract_x
 _atom_site_fract_y
 _atom_site_fract_z
 _atom_site_occupancy
  Li  Li0  1  0.33333333  0.66666667  0.54108733  1
  Li  Li1  1  0.33333333  0.66666667  0.79224600  1
  Li  Li2  1  0.00000000  0.00000000  0.87442067  1
  Li  Li3  1  0.00000000  0.00000000  0.12557933  1
  Li  Li4  1  0.66666667  0.33333333  0.20775400  1
  Li  Li5  1  0.66666667  0.33333333  0.45891267  1
  Ti  Ti6  1  0.33333333  0.66666667  0.16666667  1
  Ti  Ti7  1  1.00000000  1.00000000  0.50000000  1
  Ti  Ti8  1  0.66666667  0.33333333  0.83333333  1
  Fe  Fe9  1  0.16666667  0.83333333  0.33333333  1
  Fe  Fe10  1  0.00000000  0.50000000  0.00000000  1
  Fe  Fe11  1  0.16666667  0.33333333  0.33333333  1
  Fe  Fe12  1  0.83333333  0.16666667  0.66666667  1
  Fe  Fe13  1  0.66666667  0.83333333  0.33333333  1
  Fe  Fe14  1  0.83333333  0.66666667  0.66666667  1
  Fe  Fe15  1  0.50000000  0.50000000  0.00000000  1
  Fe  Fe16  1  0.33333333  0.16666667  0.66666667  1
  Fe  Fe17  1  0.50000000  0.00000000  0.00000000  1
  O  O18  1  0.33333333  0.66666667  0.40373500  1
  O  O19  1  0.48286883  0.96573767  0.25146367  1
  O  O20  1  0.03426233  0.51713117  0.25146367  1
  O  O21  1  0.48286883  0.51713117  0.25146367  1
  O  O22  1  0.18379783  0.81620217  0.08186967  1
  O  O23  1  0.63240433  0.81620217  0.08186967  1
  O  O24  1  0.18379783  0.36759567  0.08186967  1
  O  O25  1  0.33333333  0.66666667  0.92959833  1
  O  O26  1  0.00000000  0.00000000  0.73706833  1
  O  O27  1  0.14953550  0.29907100  0.58479700  1
  O  O28  1  0.70092900  0.85046450  0.58479700  1
  O  O29  1  0.14953550  0.85046450  0.58479700  1
  O  O30  1  0.85046450  0.14953550  0.41520300  1
  O  O31  1  0.29907100  0.14953550  0.41520300  1
  O  O32  1  0.85046450  0.70092900  0.41520300  1
  O  O33  1  0.00000000  0.00000000  0.26293167  1
  O  O34  1  0.66666667  0.33333333  0.07040167  1
  O  O35  1  0.81620217  0.63240433  0.91813033  1
  O  O36  1  0.36759567  0.18379783  0.91813033  1
  O  O37  1  0.81620217  0.18379783  0.91813033  1
  O  O38  1  0.51713117  0.48286883  0.74853633  1
  O  O39  1  0.96573767  0.48286883  0.74853633  1
  O  O40  1  0.51713117  0.03426233  0.74853633  1
  O  O41  1  0.66666667  0.33333333  0.59626500  1
