# generated using pymatgen
data_Mn3VSn2(PO4)6
_symmetry_space_group_name_H-M   'P 1'
_cell_length_a   8.73448011
_cell_length_b   8.73448011
_cell_length_c   21.90967887
_cell_angle_alpha   90.00000000
_cell_angle_beta   90.00000000
_cell_angle_gamma   120.00000000
_symmetry_Int_Tables_number   1
_chemical_formula_structural   Mn3VSn2(PO4)6
_chemical_formula_sum   'Mn9 V3 Sn6 P18 O72'
_cell_volume   1447.57396805
_cell_formula_units_Z   3
loop_
 _symmetry_equiv_pos_site_id
 _symmetry_equiv_pos_as_xyz
  1  'x, y, z'
loop_
 _atom_site_type_symbol
 _atom_site_label
 _atom_site_symmetry_multiplicity
 _atom_site_fract_x
 _atom_site_fract_y
 _atom_site_fract_z
 _atom_site_occupancy
  Mn  Mn0  1  0.33333333  0.66666667  0.01475467  1
  Mn  Mn1  1  0.00000000  0.00000000  0.14858900  1
  Mn  Mn2  1  0.33333333  0.66666667  0.31716867  1
  Mn  Mn3  1  0.00000000  0.00000000  0.34808800  1
  Mn  Mn4  1  0.66666667  0.33333333  0.48192233  1
  Mn  Mn5  1  0.00000000  0.00000000  0.65050200  1
  Mn  Mn6  1  0.66666667  0.33333333  0.68142133  1
  Mn  Mn7  1  0.33333333  0.66666667  0.81525567  1
  Mn  Mn8  1  0.66666667  0.33333333  0.98383533  1
  V  V9  1  0.66666667  0.33333333  0.18787233  1
  V  V10  1  0.33333333  0.66666667  0.52120567  1
  V  V11  1  0.00000000  0.00000000  0.85453900  1
  Sn  Sn12  1  0.00000000  0.00000000  0.00500400  1
  Sn  Sn13  1  0.33333333  0.66666667  0.16760067  1
  Sn  Sn14  1  0.66666667  0.33333333  0.33833733  1
  Sn  Sn15  1  0.00000000  0.00000000  0.50093400  1
  Sn  Sn16  1  0.33333333  0.66666667  0.67167067  1
  Sn  Sn17  1  0.66666667  0.33333333  0.83426733  1
  P  P18  1  0.66396367  0.62496633  0.08788633  1
  P  P19  1  0.96100267  0.33603633  0.08788633  1
  P  P20  1  0.37503367  0.03899733  0.08788633  1
  P  P21  1  0.29656700  0.29784300  0.24509400  1
  P  P22  1  0.70215700  0.99872400  0.24509400  1
  P  P23  1  0.00127600  0.70343300  0.24509400  1
  P  P24  1  0.33063033  0.95829967  0.42121967  1
  P  P25  1  0.62766933  0.66936967  0.42121967  1
  P  P26  1  0.04170033  0.37233067  0.42121967  1
  P  P27  1  0.96323367  0.63117633  0.57842733  1
  P  P28  1  0.36882367  0.33205733  0.57842733  1
  P  P29  1  0.66794267  0.03676633  0.57842733  1
  P  P30  1  0.99729700  0.29163300  0.75455300  1
  P  P31  1  0.29433600  0.00270300  0.75455300  1
  P  P32  1  0.70836700  0.70566400  0.75455300  1
  P  P33  1  0.62990033  0.96450967  0.91176067  1
  P  P34  1  0.03549033  0.66539067  0.91176067  1
  P  P35  1  0.33460933  0.37009967  0.91176067  1
  O  O36  1  0.88219000  0.34138100  0.02719200  1
  O  O37  1  0.45919100  0.11781000  0.02719200  1
  O  O38  1  0.65861900  0.54080900  0.02719200  1
  O  O39  1  0.82954200  0.81619800  0.08632100  1
  O  O40  1  0.67474867  0.52191433  0.14303333  1
  O  O41  1  0.49349133  0.64132267  0.09901667  1
  O  O42  1  0.98665600  0.17045800  0.08632100  1
  O  O43  1  0.14783133  0.50650867  0.09901667  1
  O  O44  1  0.19384467  0.19753133  0.18823033  1
  O  O45  1  0.35867733  0.85216867  0.09901667  1
  O  O46  1  0.48919100  0.32646500  0.24370400  1
  O  O47  1  0.80246867  0.99631333  0.18823033  1
  O  O48  1  0.84716567  0.32525133  0.14303333  1
  O  O49  1  0.18380200  0.01334400  0.08632100  1
  O  O50  1  0.32139200  0.48999900  0.23782300  1
  O  O51  1  0.47808567  0.15283433  0.14303333  1
  O  O52  1  0.51000100  0.83139300  0.23782300  1
  O  O53  1  0.67353500  0.16272600  0.24370400  1
  O  O54  1  0.16860700  0.67860800  0.23782300  1
  O  O55  1  0.00368667  0.80615533  0.18823033  1
  O  O56  1  0.83727400  0.51080900  0.24370400  1
  O  O57  1  0.99629333  0.78231167  0.30580967  1
  O  O58  1  0.21768833  0.21398167  0.30580967  1
  O  O59  1  0.78601833  0.00370667  0.30580967  1
  O  O60  1  0.54885667  0.67471433  0.36052533  1
  O  O61  1  0.12585767  0.45114333  0.36052533  1
  O  O62  1  0.32528567  0.87414233  0.36052533  1
  O  O63  1  0.49620867  0.14953133  0.41965433  1
  O  O64  1  0.34141533  0.85524767  0.47636667  1
  O  O65  1  0.16015800  0.97465600  0.43235000  1
  O  O66  1  0.65332267  0.50379133  0.41965433  1
  O  O67  1  0.81449800  0.83984200  0.43235000  1
  O  O68  1  0.86051133  0.53086467  0.52156367  1
  O  O69  1  0.02534400  0.18550200  0.43235000  1
  O  O70  1  0.15585767  0.65979833  0.57703733  1
  O  O71  1  0.46913533  0.32964667  0.52156367  1
  O  O72  1  0.51383233  0.65858467  0.47636667  1
  O  O73  1  0.85046867  0.34667733  0.41965433  1
  O  O74  1  0.98805867  0.82333233  0.57115633  1
  O  O75  1  0.14475233  0.48616767  0.47636667  1
  O  O76  1  0.17666767  0.16472633  0.57115633  1
  O  O77  1  0.34020167  0.49605933  0.57703733  1
  O  O78  1  0.83527367  0.01194133  0.57115633  1
  O  O79  1  0.67035333  0.13948867  0.52156367  1
  O  O80  1  0.50394067  0.84414233  0.57703733  1
  O  O81  1  0.66296000  0.11564500  0.63914300  1
  O  O82  1  0.88435500  0.54731500  0.63914300  1
  O  O83  1  0.45268500  0.33704000  0.63914300  1
  O  O84  1  0.21552333  0.00804767  0.69385867  1
  O  O85  1  0.79252433  0.78447667  0.69385867  1
  O  O86  1  0.99195233  0.20747567  0.69385867  1
  O  O87  1  0.16287533  0.48286467  0.75298767  1
  O  O88  1  0.00808200  0.18858100  0.80970000  1
  O  O89  1  0.82682467  0.30798933  0.76568333  1
  O  O90  1  0.31998933  0.83712467  0.75298767  1
  O  O91  1  0.48116467  0.17317533  0.76568333  1
  O  O92  1  0.52717800  0.86419800  0.85489700  1
  O  O93  1  0.69201067  0.51883533  0.76568333  1
  O  O94  1  0.82252433  0.99313167  0.91037067  1
  O  O95  1  0.13580200  0.66298000  0.85489700  1
  O  O96  1  0.18049900  0.99191800  0.80970000  1
  O  O97  1  0.51713533  0.68001067  0.75298767  1
  O  O98  1  0.65472533  0.15666567  0.90448967  1
  O  O99  1  0.81141900  0.81950100  0.80970000  1
  O  O100  1  0.84333433  0.49805967  0.90448967  1
  O  O101  1  0.00686833  0.82939267  0.91037067  1
  O  O102  1  0.50194033  0.34527467  0.90448967  1
  O  O103  1  0.33702000  0.47282200  0.85489700  1
  O  O104  1  0.17060733  0.17747567  0.91037067  1
  O  O105  1  0.32962667  0.44897833  0.97247633  1
  O  O106  1  0.55102167  0.88064833  0.97247633  1
  O  O107  1  0.11935167  0.67037333  0.97247633  1
