# generated using pymatgen
data_Li2FeCo3O8
_symmetry_space_group_name_H-M   'P 1'
_cell_length_a   5.72934630
_cell_length_b   5.72934630
_cell_length_c   14.37536214
_cell_angle_alpha   90.00000000
_cell_angle_beta   90.00000000
_cell_angle_gamma   120.00000000
_symmetry_Int_Tables_number   1
_chemical_formula_structural   Li2FeCo3O8
_chemical_formula_sum   'Li6 Fe3 Co9 O24'
_cell_volume   408.65759218
_cell_formula_units_Z   3
loop_
 _symmetry_equiv_pos_site_id
 _symmetry_equiv_pos_as_xyz
  1  'x, y, z'
loop_
 _atom_site_type_symbol
 _atom_site_label
 _atom_site_symmetry_multiplicity
 _atom_site_fract_x
 _atom_site_fract_y
 _atom_site_fract_z
 _atom_site_occupancy
  Li  Li0  1  0.66666667  0.33333333  0.21049867  1
  Li  Li1  1  0.00000000  0.00000000  0.12283467  1
  Li  Li2  1  0.33333333  0.66666667  0.54383200  1
  Li  Li3  1  0.66666667  0.33333333  0.45616800  1
  Li  Li4  1  0.00000000  0.00000000  0.87716533  1
  Li  Li5  1  0.33333333  0.66666667  0.78950133  1
  Fe  Fe6  1  0.33333333  0.66666667  0.16666667  1
  Fe  Fe7  1  1.00000000  1.00000000  0.50000000  1
  Fe  Fe8  1  0.66666667  0.33333333  0.83333333  1
  Co  Co9  1  0.16666667  0.83333333  0.33333333  1
  Co  Co10  1  0.50000000  0.00000000  0.00000000  1
  Co  Co11  1  0.00000000  0.50000000  0.00000000  1
  Co  Co12  1  0.83333333  0.16666667  0.66666667  1
  Co  Co13  1  0.16666667  0.33333333  0.33333333  1
  Co  Co14  1  0.66666667  0.83333333  0.33333333  1
  Co  Co15  1  0.50000000  0.50000000  0.00000000  1
  Co  Co16  1  0.83333333  0.66666667  0.66666667  1
  Co  Co17  1  0.33333333  0.16666667  0.66666667  1
  O  O18  1  0.00000000  0.00000000  0.26386833  1
  O  O19  1  0.66666667  0.33333333  0.06946500  1
  O  O20  1  0.48407558  0.96815117  0.25975667  1
  O  O21  1  0.48407558  0.51592442  0.25975667  1
  O  O22  1  0.03184883  0.51592442  0.25975667  1
  O  O23  1  0.63481783  0.81740892  0.07357667  1
  O  O24  1  0.18259108  0.81740892  0.07357667  1
  O  O25  1  0.18259108  0.36518217  0.07357667  1
  O  O26  1  0.66666667  0.33333333  0.59720167  1
  O  O27  1  0.33333333  0.66666667  0.40279833  1
  O  O28  1  0.15074225  0.30148450  0.59309000  1
  O  O29  1  0.15074225  0.84925775  0.59309000  1
  O  O30  1  0.69851550  0.84925775  0.59309000  1
  O  O31  1  0.30148450  0.15074225  0.40691000  1
  O  O32  1  0.84925775  0.15074225  0.40691000  1
  O  O33  1  0.84925775  0.69851550  0.40691000  1
  O  O34  1  0.33333333  0.66666667  0.93053500  1
  O  O35  1  0.00000000  0.00000000  0.73613167  1
  O  O36  1  0.81740892  0.63481783  0.92642333  1
  O  O37  1  0.81740892  0.18259108  0.92642333  1
  O  O38  1  0.36518217  0.18259108  0.92642333  1
  O  O39  1  0.96815117  0.48407558  0.74024333  1
  O  O40  1  0.51592442  0.48407558  0.74024333  1
  O  O41  1  0.51592442  0.03184883  0.74024333  1
