# generated using pymatgen
data_Co21O40
_symmetry_space_group_name_H-M   'P 1'
_cell_length_a   12.69832800
_cell_length_b   12.69832800
_cell_length_c   7.99929200
_cell_angle_alpha   90.00000000
_cell_angle_beta   90.00000000
_cell_angle_gamma   90.00000000
_symmetry_Int_Tables_number   1
_chemical_formula_structural   Co21O40
_chemical_formula_sum   'Co42 O80'
_cell_volume   1289.86610871
_cell_formula_units_Z   2
loop_
 _symmetry_equiv_pos_site_id
 _symmetry_equiv_pos_as_xyz
  1  'x, y, z'
loop_
 _atom_site_type_symbol
 _atom_site_label
 _atom_site_symmetry_multiplicity
 _atom_site_fract_x
 _atom_site_fract_y
 _atom_site_fract_z
 _atom_site_occupancy
  Co  Co0  1  0.29884450  0.85218850  0.62524950  1
  Co  Co1  1  0.44782600  0.90125600  0.37481600  1
  Co  Co2  1  0.55217400  0.09874400  0.37481600  1
  Co  Co3  1  0.40125600  0.05217400  0.12518400  1
  Co  Co4  1  0.65212100  0.29717500  0.37746800  1
  Co  Co5  1  0.10025950  0.95218150  0.62515950  1
  Co  Co6  1  0.25233900  0.00189000  0.87680400  1
  Co  Co7  1  0.50189000  0.24766100  0.62319600  1
  Co  Co8  1  0.20282500  0.15212100  0.12253200  1
  Co  Co9  1  0.54781850  0.60025950  0.87484050  1
  Co  Co10  1  0.35218850  0.20115550  0.87475050  1
  Co  Co11  1  0.00000000  0.00000000  0.00000000  1
  Co  Co12  1  0.89974050  0.04781850  0.62515950  1
  Co  Co13  1  0.45218150  0.39974050  0.87484050  1
  Co  Co14  1  0.79717500  0.84787900  0.12253200  1
  Co  Co15  1  0.64781150  0.79884450  0.87475050  1
  Co  Co16  1  0.74766100  0.99811000  0.87680400  1
  Co  Co17  1  0.49811000  0.75233900  0.62319600  1
  Co  Co18  1  0.34787900  0.70282500  0.37746800  1
  Co  Co19  1  0.59874400  0.94782600  0.12518400  1
  Co  Co20  1  0.70115550  0.14781150  0.62524950  1
  Co  Co21  1  0.79884450  0.35218850  0.12524950  1
  Co  Co22  1  0.94782600  0.40125600  0.87481600  1
  Co  Co23  1  0.05217400  0.59874400  0.87481600  1
  Co  Co24  1  0.90125600  0.55217400  0.62518400  1
  Co  Co25  1  0.15212100  0.79717500  0.87746800  1
  Co  Co26  1  0.60025950  0.45218150  0.12515950  1
  Co  Co27  1  0.75233900  0.50189000  0.37680400  1
  Co  Co28  1  0.00189000  0.74766100  0.12319600  1
  Co  Co29  1  0.70282500  0.65212100  0.62253200  1
  Co  Co30  1  0.04781850  0.10025950  0.37484050  1
  Co  Co31  1  0.85218850  0.70115550  0.37475050  1
  Co  Co32  1  0.50000000  0.50000000  0.50000000  1
  Co  Co33  1  0.39974050  0.54781850  0.12515950  1
  Co  Co34  1  0.95218150  0.89974050  0.37484050  1
  Co  Co35  1  0.29717500  0.34787900  0.62253200  1
  Co  Co36  1  0.14781150  0.29884450  0.37475050  1
  Co  Co37  1  0.24766100  0.49811000  0.37680400  1
  Co  Co38  1  0.99811000  0.25233900  0.12319600  1
  Co  Co39  1  0.84787900  0.20282500  0.87746800  1
  Co  Co40  1  0.09874400  0.44782600  0.62518400  1
  Co  Co41  1  0.20115550  0.64781150  0.12524950  1
  O  O42  1  0.44209950  0.88926750  0.60946750  1
  O  O43  1  0.30932900  0.84574000  0.38955700  1
  O  O44  1  0.45340750  0.91327150  0.14041850  1
  O  O45  1  0.54659250  0.08672850  0.14041850  1
  O  O46  1  0.25824100  0.01623400  0.11420200  1
  O  O47  1  0.69067100  0.15426000  0.38955700  1
  O  O48  1  0.28731200  0.85779100  0.85942900  1
  O  O49  1  0.65419300  0.31410700  0.13994500  1
  O  O50  1  0.49037300  0.25946900  0.85747700  1
  O  O51  1  0.41327150  0.04659250  0.35958150  1
  O  O52  1  0.55790050  0.11073250  0.60946750  1
  O  O53  1  0.24053100  0.99037300  0.64252300  1
  O  O54  1  0.08923600  0.95669400  0.39047500  1
  O  O55  1  0.51623400  0.24175900  0.38579800  1
  O  O56  1  0.64771650  0.28588550  0.60787750  1
  O  O57  1  0.34574000  0.19067100  0.11044300  1
  O  O58  1  0.18589300  0.15419300  0.36005500  1
  O  O59  1  0.10847250  0.94638750  0.86762350  1
  O  O60  1  0.45669400  0.41076400  0.10952500  1
  O  O61  1  0.38926750  0.05790050  0.89053250  1
  O  O62  1  0.54330600  0.58923600  0.10952500  1
  O  O63  1  0.35779100  0.21268800  0.64057100  1
  O  O64  1  0.50962700  0.74053100  0.85747700  1
  O  O65  1  0.44638750  0.39152750  0.63237650  1
  O  O66  1  0.78588550  0.85228350  0.89212250  1
  O  O67  1  0.21411450  0.14771650  0.89212250  1
  O  O68  1  0.55361250  0.60847250  0.63237650  1
  O  O69  1  0.89152750  0.05361250  0.86762350  1
  O  O70  1  0.75946900  0.00962700  0.64252300  1
  O  O71  1  0.81410700  0.84580700  0.36005500  1
  O  O72  1  0.34580700  0.68589300  0.13994500  1
  O  O73  1  0.65426000  0.80932900  0.11044300  1
  O  O74  1  0.48376600  0.75824100  0.38579800  1
  O  O75  1  0.91076400  0.04330600  0.39047500  1
  O  O76  1  0.61073250  0.94209950  0.89053250  1
  O  O77  1  0.74175900  0.98376600  0.11420200  1
  O  O78  1  0.71268800  0.14220900  0.85942900  1
  O  O79  1  0.64220900  0.78731200  0.64057100  1
  O  O80  1  0.35228350  0.71411450  0.60787750  1
  O  O81  1  0.58672850  0.95340750  0.35958150  1
  O  O82  1  0.94209950  0.38926750  0.10946750  1
  O  O83  1  0.80932900  0.34574000  0.88955700  1
  O  O84  1  0.95340750  0.41327150  0.64041850  1
  O  O85  1  0.04659250  0.58672850  0.64041850  1
  O  O86  1  0.75824100  0.51623400  0.61420200  1
  O  O87  1  0.19067100  0.65426000  0.88955700  1
  O  O88  1  0.78731200  0.35779100  0.35942900  1
  O  O89  1  0.15419300  0.81410700  0.63994500  1
  O  O90  1  0.99037300  0.75946900  0.35747700  1
  O  O91  1  0.91327150  0.54659250  0.85958150  1
  O  O92  1  0.05790050  0.61073250  0.10946750  1
  O  O93  1  0.74053100  0.49037300  0.14252300  1
  O  O94  1  0.58923600  0.45669400  0.89047500  1
  O  O95  1  0.01623400  0.74175900  0.88579800  1
  O  O96  1  0.14771650  0.78588550  0.10787750  1
  O  O97  1  0.84574000  0.69067100  0.61044300  1
  O  O98  1  0.68589300  0.65419300  0.86005500  1
  O  O99  1  0.60847250  0.44638750  0.36762350  1
  O  O100  1  0.95669400  0.91076400  0.60952500  1
  O  O101  1  0.88926750  0.55790050  0.39053250  1
  O  O102  1  0.04330600  0.08923600  0.60952500  1
  O  O103  1  0.85779100  0.71268800  0.14057100  1
  O  O104  1  0.00962700  0.24053100  0.35747700  1
  O  O105  1  0.94638750  0.89152750  0.13237650  1
  O  O106  1  0.28588550  0.35228350  0.39212250  1
  O  O107  1  0.71411450  0.64771650  0.39212250  1
  O  O108  1  0.05361250  0.10847250  0.13237650  1
  O  O109  1  0.39152750  0.55361250  0.36762350  1
  O  O110  1  0.25946900  0.50962700  0.14252300  1
  O  O111  1  0.31410700  0.34580700  0.86005500  1
  O  O112  1  0.84580700  0.18589300  0.63994500  1
  O  O113  1  0.15426000  0.30932900  0.61044300  1
  O  O114  1  0.98376600  0.25824100  0.88579800  1
  O  O115  1  0.41076400  0.54330600  0.89047500  1
  O  O116  1  0.11073250  0.44209950  0.39053250  1
  O  O117  1  0.24175900  0.48376600  0.61420200  1
  O  O118  1  0.21268800  0.64220900  0.35942900  1
  O  O119  1  0.14220900  0.28731200  0.14057100  1
  O  O120  1  0.85228350  0.21411450  0.10787750  1
  O  O121  1  0.08672850  0.45340750  0.85958150  1
