# generated using pymatgen
data_Fe10O9F11
_symmetry_space_group_name_H-M   'P 1'
_cell_length_a   6.60055400
_cell_length_b   6.86025200
_cell_length_c   15.49677606
_cell_angle_alpha   90.00000000
_cell_angle_beta   90.20895543
_cell_angle_gamma   90.00000000
_symmetry_Int_Tables_number   1
_chemical_formula_structural   Fe10O9F11
_chemical_formula_sum   'Fe20 O18 F22'
_cell_volume   701.71203715
_cell_formula_units_Z   2
loop_
 _symmetry_equiv_pos_site_id
 _symmetry_equiv_pos_as_xyz
  1  'x, y, z'
loop_
 _atom_site_type_symbol
 _atom_site_label
 _atom_site_symmetry_multiplicity
 _atom_site_fract_x
 _atom_site_fract_y
 _atom_site_fract_z
 _atom_site_occupancy
  Fe  Fe0  1  0.49536050  0.48930150  0.30285600  1
  Fe  Fe1  1  0.02772850  0.99186550  0.09107200  1
  Fe  Fe2  1  0.97227150  0.99186550  0.90892800  1
  Fe  Fe3  1  0.50463950  0.48930150  0.69714400  1
  Fe  Fe4  1  0.50000000  0.47542900  0.50000000  1
  Fe  Fe5  1  0.48913350  0.99156150  0.20233800  1
  Fe  Fe6  1  0.51086650  0.99156150  0.79766200  1
  Fe  Fe7  1  0.50000000  0.02340700  0.00000000  1
  Fe  Fe8  1  0.50017300  0.02333600  0.61215200  1
  Fe  Fe9  1  0.49982700  0.02333600  0.38784800  1
  Fe  Fe10  1  0.99536050  0.98930150  0.30285600  1
  Fe  Fe11  1  0.52772850  0.49186550  0.09107200  1
  Fe  Fe12  1  0.47227150  0.49186550  0.90892800  1
  Fe  Fe13  1  0.00463950  0.98930150  0.69714400  1
  Fe  Fe14  1  0.00000000  0.97542900  0.50000000  1
  Fe  Fe15  1  0.98913350  0.49156150  0.20233800  1
  Fe  Fe16  1  0.01086650  0.49156150  0.79766200  1
  Fe  Fe17  1  0.00000000  0.52340700  0.00000000  1
  Fe  Fe18  1  0.00017300  0.52333600  0.61215200  1
  Fe  Fe19  1  0.99982700  0.52333600  0.38784800  1
  O  O20  1  0.50000000  0.29943000  0.00000000  1
  O  O21  1  0.50227550  0.30877050  0.59834500  1
  O  O22  1  0.49772450  0.30877050  0.40165500  1
  O  O23  1  0.69660750  0.99929050  0.29673200  1
  O  O24  1  0.67770950  0.99917450  0.89924100  1
  O  O25  1  0.70320000  0.99926900  0.70133200  1
  O  O26  1  0.29680000  0.99926900  0.29866800  1
  O  O27  1  0.32229050  0.99917450  0.10075900  1
  O  O28  1  0.30339250  0.99929050  0.70326800  1
  O  O29  1  0.00000000  0.79943000  0.00000000  1
  O  O30  1  0.00227550  0.80877050  0.59834500  1
  O  O31  1  0.99772450  0.80877050  0.40165500  1
  O  O32  1  0.19660750  0.49929050  0.29673200  1
  O  O33  1  0.17770950  0.49917450  0.89924100  1
  O  O34  1  0.20320000  0.49926900  0.70133200  1
  O  O35  1  0.79680000  0.49926900  0.29866800  1
  O  O36  1  0.82229050  0.49917450  0.10075900  1
  O  O37  1  0.80339250  0.49929050  0.70326800  1
  F  F38  1  0.50344100  0.30206500  0.20038500  1
  F  F39  1  0.49655900  0.30206500  0.79961500  1
  F  F40  1  0.71092350  0.00107650  0.10203100  1
  F  F41  1  0.69016750  0.00385050  0.49989400  1
  F  F42  1  0.28907650  0.00107650  0.89796900  1
  F  F43  1  0.30983250  0.00385050  0.50010600  1
  F  F44  1  0.50196050  0.68823250  0.20033000  1
  F  F45  1  0.49803950  0.68823250  0.79967000  1
  F  F46  1  0.50000000  0.71383000  0.00000000  1
  F  F47  1  0.49790500  0.69615900  0.40487100  1
  F  F48  1  0.50209500  0.69615900  0.59512900  1
  F  F49  1  0.00344100  0.80206500  0.20038500  1
  F  F50  1  0.99655900  0.80206500  0.79961500  1
  F  F51  1  0.21092350  0.50107650  0.10203100  1
  F  F52  1  0.19016750  0.50385050  0.49989400  1
  F  F53  1  0.78907650  0.50107650  0.89796900  1
  F  F54  1  0.80983250  0.50385050  0.50010600  1
  F  F55  1  0.00196050  0.18823250  0.20033000  1
  F  F56  1  0.99803950  0.18823250  0.79967000  1
  F  F57  1  0.00000000  0.21383000  0.00000000  1
  F  F58  1  0.99790500  0.19615900  0.40487100  1
  F  F59  1  0.00209500  0.19615900  0.59512900  1
