# generated using pymatgen
data_Mn6O7F5
_symmetry_space_group_name_H-M   'P 1'
_cell_length_a   4.55869900
_cell_length_b   5.67591600
_cell_length_c   15.37155958
_cell_angle_alpha   90.00000000
_cell_angle_beta   90.13002262
_cell_angle_gamma   90.00000000
_symmetry_Int_Tables_number   1
_chemical_formula_structural   Mn6O7F5
_chemical_formula_sum   'Mn12 O14 F10'
_cell_volume   397.73489184
_cell_formula_units_Z   2
loop_
 _symmetry_equiv_pos_site_id
 _symmetry_equiv_pos_as_xyz
  1  'x, y, z'
loop_
 _atom_site_type_symbol
 _atom_site_label
 _atom_site_symmetry_multiplicity
 _atom_site_fract_x
 _atom_site_fract_y
 _atom_site_fract_z
 _atom_site_occupancy
  Mn  Mn0  1  0.01440800  0.84925800  0.59258900  1
  Mn  Mn1  1  0.02973800  0.16052100  0.75629200  1
  Mn  Mn2  1  0.02973800  0.83947900  0.25629200  1
  Mn  Mn3  1  0.00166500  0.15364600  0.42374000  1
  Mn  Mn4  1  0.01440800  0.15074200  0.09258900  1
  Mn  Mn5  1  0.00166500  0.84635400  0.92374000  1
  Mn  Mn6  1  0.51251000  0.64889700  0.40887700  1
  Mn  Mn7  1  0.49926600  0.65108900  0.07908800  1
  Mn  Mn8  1  0.49926600  0.34891100  0.57908800  1
  Mn  Mn9  1  0.50553400  0.63569600  0.73925900  1
  Mn  Mn10  1  0.51251000  0.35110300  0.90887700  1
  Mn  Mn11  1  0.50553400  0.36430400  0.23925900  1
  O  O12  1  0.24069000  0.88670500  0.69811300  1
  O  O13  1  0.22104200  0.88258100  0.36534400  1
  O  O14  1  0.21912700  0.88751300  0.03248200  1
  O  O15  1  0.22104200  0.11741900  0.86534400  1
  O  O16  1  0.21912700  0.11248700  0.53248200  1
  O  O17  1  0.24069000  0.11329500  0.19811300  1
  O  O18  1  0.28151200  0.39792000  0.68664800  1
  O  O19  1  0.28151200  0.60208000  0.18664800  1
  O  O20  1  0.72686400  0.61866500  0.63679300  1
  O  O21  1  0.71734300  0.38111400  0.46947500  1
  O  O22  1  0.72686400  0.38133500  0.13679300  1
  O  O23  1  0.71734300  0.61888600  0.96947500  1
  O  O24  1  0.73287900  0.38945600  0.80277400  1
  O  O25  1  0.73287900  0.61054400  0.30277400  1
  F  F26  1  0.26001500  0.62059400  0.84611600  1
  F  F27  1  0.25356800  0.61697400  0.51300100  1
  F  F28  1  0.25356800  0.38302600  0.01300100  1
  F  F29  1  0.26001500  0.37940600  0.34611600  1
  F  F30  1  0.75471800  0.88178000  0.48678300  1
  F  F31  1  0.77444800  0.12442600  0.65259300  1
  F  F32  1  0.75471800  0.11822000  0.98678300  1
  F  F33  1  0.75467100  0.87251200  0.81003300  1
  F  F34  1  0.77444800  0.87557400  0.15259300  1
  F  F35  1  0.75467100  0.12748800  0.31003300  1
