# generated using pymatgen
data_LiAg3F8
_symmetry_space_group_name_H-M   'P 1'
_cell_length_a   12.70324663
_cell_length_b   5.38864863
_cell_length_c   10.77219864
_cell_angle_alpha   90.00000000
_cell_angle_beta   117.97057272
_cell_angle_gamma   90.00000000
_symmetry_Int_Tables_number   1
_chemical_formula_structural   LiAg3F8
_chemical_formula_sum   'Li4 Ag12 F32'
_cell_volume   651.25699809
_cell_formula_units_Z   4
loop_
 _symmetry_equiv_pos_site_id
 _symmetry_equiv_pos_as_xyz
  1  'x, y, z'
loop_
 _atom_site_type_symbol
 _atom_site_label
 _atom_site_symmetry_multiplicity
 _atom_site_fract_x
 _atom_site_fract_y
 _atom_site_fract_z
 _atom_site_occupancy
  Li  Li0  1  0.50000000  0.96865700  0.75000000  1
  Li  Li1  1  0.50000000  0.03134300  0.25000000  1
  Li  Li2  1  0.00000000  0.46865700  0.75000000  1
  Li  Li3  1  0.00000000  0.53134300  0.25000000  1
  Ag  Ag4  1  0.74061150  0.01451350  0.11105300  1
  Ag  Ag5  1  0.75938850  0.51451350  0.38894700  1
  Ag  Ag6  1  0.50000000  0.50000000  0.50000000  1
  Ag  Ag7  1  0.50000000  0.50000000  0.00000000  1
  Ag  Ag8  1  0.24061150  0.48548650  0.61105300  1
  Ag  Ag9  1  0.25938850  0.98548650  0.88894700  1
  Ag  Ag10  1  0.24061150  0.51451350  0.11105300  1
  Ag  Ag11  1  0.25938850  0.01451350  0.38894700  1
  Ag  Ag12  1  0.00000000  0.00000000  0.50000000  1
  Ag  Ag13  1  0.00000000  0.00000000  0.00000000  1
  Ag  Ag14  1  0.74061150  0.98548650  0.61105300  1
  Ag  Ag15  1  0.75938850  0.48548650  0.88894700  1
  F  F16  1  0.65399750  0.87646150  0.90893900  1
  F  F17  1  0.34600250  0.87646150  0.59106100  1
  F  F18  1  0.42979700  0.80035100  0.87332000  1
  F  F19  1  0.17058800  0.78797600  0.70101600  1
  F  F20  1  0.67058800  0.71202400  0.20101600  1
  F  F21  1  0.92979700  0.69964900  0.37332000  1
  F  F22  1  0.60248450  0.62856350  0.41384400  1
  F  F23  1  0.39751550  0.62856350  0.08615600  1
  F  F24  1  0.60248450  0.37143650  0.91384400  1
  F  F25  1  0.39751550  0.37143650  0.58615600  1
  F  F26  1  0.07020300  0.30035100  0.62668000  1
  F  F27  1  0.32941200  0.28797600  0.79898400  1
  F  F28  1  0.82941200  0.21202400  0.29898400  1
  F  F29  1  0.57020300  0.19964900  0.12668000  1
  F  F30  1  0.65399750  0.12353850  0.40893900  1
  F  F31  1  0.34600250  0.12353850  0.09106100  1
  F  F32  1  0.15399750  0.37646150  0.90893900  1
  F  F33  1  0.84600250  0.37646150  0.59106100  1
  F  F34  1  0.92979700  0.30035100  0.87332000  1
  F  F35  1  0.67058800  0.28797600  0.70101600  1
  F  F36  1  0.17058800  0.21202400  0.20101600  1
  F  F37  1  0.42979700  0.19964900  0.37332000  1
  F  F38  1  0.10248450  0.12856350  0.41384400  1
  F  F39  1  0.89751550  0.12856350  0.08615600  1
  F  F40  1  0.10248450  0.87143650  0.91384400  1
  F  F41  1  0.89751550  0.87143650  0.58615600  1
  F  F42  1  0.57020300  0.80035100  0.62668000  1
  F  F43  1  0.82941200  0.78797600  0.79898400  1
  F  F44  1  0.32941200  0.71202400  0.29898400  1
  F  F45  1  0.07020300  0.69964900  0.12668000  1
  F  F46  1  0.15399750  0.62353850  0.40893900  1
  F  F47  1  0.84600250  0.62353850  0.09106100  1
