# generated using pymatgen
data_Li7TiCr3(PO4)6
_symmetry_space_group_name_H-M   'P 1'
_cell_length_a   8.87338641
_cell_length_b   8.87338641
_cell_length_c   21.51152348
_cell_angle_alpha   90.00000000
_cell_angle_beta   90.00000000
_cell_angle_gamma   120.00000000
_symmetry_Int_Tables_number   1
_chemical_formula_structural   Li7TiCr3(PO4)6
_chemical_formula_sum   'Li21 Ti3 Cr9 P18 O72'
_cell_volume   1466.83272050
_cell_formula_units_Z   3
loop_
 _symmetry_equiv_pos_site_id
 _symmetry_equiv_pos_as_xyz
  1  'x, y, z'
loop_
 _atom_site_type_symbol
 _atom_site_label
 _atom_site_symmetry_multiplicity
 _atom_site_fract_x
 _atom_site_fract_y
 _atom_site_fract_z
 _atom_site_occupancy
  Li  Li0  1  0.40356367  0.42671533  0.22518833  1
  Li  Li1  1  0.02315167  0.59643633  0.22518833  1
  Li  Li2  1  0.57328467  0.97684833  0.22518833  1
  Li  Li3  1  0.33333333  0.66666667  0.14124167  1
  Li  Li4  1  0.02713400  0.23116100  0.03195200  1
  Li  Li5  1  0.76883900  0.79597300  0.03195200  1
  Li  Li6  1  0.20402700  0.97286600  0.03195200  1
  Li  Li7  1  0.07023033  0.76004867  0.55852167  1
  Li  Li8  1  0.68981833  0.92976967  0.55852167  1
  Li  Li9  1  0.23995133  0.31018167  0.55852167  1
  Li  Li10  1  0.00000000  0.00000000  0.47457500  1
  Li  Li11  1  0.69380067  0.56449433  0.36528533  1
  Li  Li12  1  0.43550567  0.12930633  0.36528533  1
  Li  Li13  1  0.87069367  0.30619933  0.36528533  1
  Li  Li14  1  0.73689700  0.09338200  0.89185500  1
  Li  Li15  1  0.35648500  0.26310300  0.89185500  1
  Li  Li16  1  0.90661800  0.64351500  0.89185500  1
  Li  Li17  1  0.66666667  0.33333333  0.80790833  1
  Li  Li18  1  0.36046733  0.89782767  0.69861867  1
  Li  Li19  1  0.10217233  0.46263967  0.69861867  1
  Li  Li20  1  0.53736033  0.63953267  0.69861867  1
  Ti  Ti21  1  0.33333333  0.66666667  0.81031567  1
  Ti  Ti22  1  0.00000000  0.00000000  0.14364900  1
  Ti  Ti23  1  0.66666667  0.33333333  0.47698233  1
  Cr  Cr24  1  0.33333333  0.66666667  0.52096167  1
  Cr  Cr25  1  0.33333333  0.66666667  0.01933567  1
  Cr  Cr26  1  0.33333333  0.66666667  0.31115367  1
  Cr  Cr27  1  0.00000000  0.00000000  0.85429500  1
  Cr  Cr28  1  0.00000000  0.00000000  0.35266900  1
  Cr  Cr29  1  0.00000000  0.00000000  0.64448700  1
  Cr  Cr30  1  0.66666667  0.33333333  0.18762833  1
  Cr  Cr31  1  0.66666667  0.33333333  0.68600233  1
  Cr  Cr32  1  0.66666667  0.33333333  0.97782033  1
  P  P33  1  0.00513233  0.29431467  0.24868267  1
  P  P34  1  0.70568533  0.71081767  0.24868267  1
  P  P35  1  0.28918233  0.99486767  0.24868267  1
  P  P36  1  0.37276400  0.33497800  0.08322200  1
  P  P37  1  0.96221400  0.62723600  0.08322200  1
  P  P38  1  0.66502200  0.03778600  0.08322200  1
  P  P39  1  0.67179900  0.62764800  0.58201600  1
  P  P40  1  0.37235200  0.04415100  0.58201600  1
  P  P41  1  0.95584900  0.32820100  0.58201600  1
  P  P42  1  0.03943067  0.66831133  0.41655533  1
  P  P43  1  0.62888067  0.96056933  0.41655533  1
  P  P44  1  0.33168867  0.37111933  0.41655533  1
  P  P45  1  0.33846567  0.96098133  0.91534933  1
  P  P46  1  0.03901867  0.37748433  0.91534933  1
  P  P47  1  0.62251567  0.66153433  0.91534933  1
  P  P48  1  0.70609733  0.00164467  0.74988867  1
  P  P49  1  0.29554733  0.29390267  0.74988867  1
  P  P50  1  0.99835533  0.70445267  0.74988867  1
  O  O51  1  0.85476367  0.33585333  0.24757633  1
  O  O52  1  0.34504567  0.85877233  0.85924133  1
  O  O53  1  0.17928233  0.47326767  0.24590067  1
  O  O54  1  0.13677900  0.44962000  0.97735300  1
  O  O55  1  0.66414667  0.51891033  0.24757633  1
  O  O56  1  0.52673233  0.70601467  0.24590067  1
  O  O57  1  0.55038000  0.68715900  0.97735300  1
  O  O58  1  0.29398533  0.82071767  0.24590067  1
  O  O59  1  0.46363600  0.34524700  0.14548400  1
  O  O60  1  0.18509333  0.16734967  0.08044767  1
  O  O61  1  0.31284100  0.86322100  0.97735300  1
  O  O62  1  0.88161100  0.53636400  0.14548400  1
  O  O63  1  0.14122767  0.48627333  0.85924133  1
  O  O64  1  0.35642300  0.48514300  0.35939600  1
  O  O65  1  0.48108967  0.14523633  0.24757633  1
  O  O66  1  0.51372667  0.65495433  0.85924133  1
  O  O67  1  0.34883033  0.49571867  0.08159867  1
  O  O68  1  0.12872000  0.64357700  0.35939600  1
  O  O69  1  0.14688833  0.65116967  0.08159867  1
  O  O70  1  0.98225633  0.81490667  0.08044767  1
  O  O71  1  0.51485700  0.87128000  0.35939600  1
  O  O72  1  0.65475300  0.11838900  0.14548400  1
  O  O73  1  0.50428133  0.85311167  0.08159867  1
  O  O74  1  0.83265033  0.01774367  0.08044767  1
  O  O75  1  0.52143033  0.66918667  0.58090967  1
  O  O76  1  0.01171233  0.19210567  0.19257467  1
  O  O77  1  0.84594900  0.80660100  0.57923400  1
  O  O78  1  0.80344567  0.78295333  0.31068633  1
  O  O79  1  0.33081333  0.85224367  0.58090967  1
  O  O80  1  0.19339900  0.03934800  0.57923400  1
  O  O81  1  0.21704667  0.02049233  0.31068633  1
  O  O82  1  0.96065200  0.15405100  0.57923400  1
  O  O83  1  0.13030267  0.67858033  0.47881733  1
  O  O84  1  0.85176000  0.50068300  0.41378100  1
  O  O85  1  0.97950767  0.19655433  0.31068633  1
  O  O86  1  0.54827767  0.86969733  0.47881733  1
  O  O87  1  0.80789433  0.81960667  0.19257467  1
  O  O88  1  0.02308967  0.81847633  0.69272933  1
  O  O89  1  0.14775633  0.47856967  0.58090967  1
  O  O90  1  0.18039333  0.98828767  0.19257467  1
  O  O91  1  0.01549700  0.82905200  0.41493200  1
  O  O92  1  0.79538667  0.97691033  0.69272933  1
  O  O93  1  0.81355500  0.98450300  0.41493200  1
  O  O94  1  0.64892300  0.14824000  0.41378100  1
  O  O95  1  0.18152367  0.20461333  0.69272933  1
  O  O96  1  0.32141967  0.45172233  0.47881733  1
  O  O97  1  0.17094800  0.18644500  0.41493200  1
  O  O98  1  0.49931700  0.35107700  0.41378100  1
  O  O99  1  0.18809700  0.00252000  0.91424300  1
  O  O100  1  0.67837900  0.52543900  0.52590800  1
  O  O101  1  0.51261567  0.13993433  0.91256733  1
  O  O102  1  0.47011233  0.11628667  0.64401967  1
  O  O103  1  0.99748000  0.18557700  0.91424300  1
  O  O104  1  0.86006567  0.37268133  0.91256733  1
  O  O105  1  0.88371333  0.35382567  0.64401967  1
  O  O106  1  0.62731867  0.48738433  0.91256733  1
  O  O107  1  0.79696933  0.01191367  0.81215067  1
  O  O108  1  0.51842667  0.83401633  0.74711433  1
  O  O109  1  0.64617433  0.52988767  0.64401967  1
  O  O110  1  0.21494433  0.20303067  0.81215067  1
  O  O111  1  0.47456100  0.15294000  0.52590800  1
  O  O112  1  0.68975633  0.15180967  0.02606267  1
  O  O113  1  0.81442300  0.81190300  0.91424300  1
  O  O114  1  0.84706000  0.32162100  0.52590800  1
  O  O115  1  0.68216367  0.16238533  0.74826533  1
  O  O116  1  0.46205333  0.31024367  0.02606267  1
  O  O117  1  0.48022167  0.31783633  0.74826533  1
  O  O118  1  0.31558967  0.48157333  0.74711433  1
  O  O119  1  0.84819033  0.53794667  0.02606267  1
  O  O120  1  0.98808633  0.78505567  0.81215067  1
  O  O121  1  0.83761467  0.51977833  0.74826533  1
  O  O122  1  0.16598367  0.68441033  0.74711433  1
