# generated using pymatgen
data_Li5V3(NiO5)2
_symmetry_space_group_name_H-M   'P 1'
_cell_length_a   5.06970513
_cell_length_b   5.20218565
_cell_length_c   7.92562305
_cell_angle_alpha   106.96862637
_cell_angle_beta   102.66511900
_cell_angle_gamma   100.61921899
_symmetry_Int_Tables_number   1
_chemical_formula_structural   Li5V3(NiO5)2
_chemical_formula_sum   'Li5 V3 Ni2 O10'
_cell_volume   188.03235221
_cell_formula_units_Z   1
loop_
 _symmetry_equiv_pos_site_id
 _symmetry_equiv_pos_as_xyz
  1  'x, y, z'
loop_
 _atom_site_type_symbol
 _atom_site_label
 _atom_site_symmetry_multiplicity
 _atom_site_fract_x
 _atom_site_fract_y
 _atom_site_fract_z
 _atom_site_occupancy
  Li  Li0  1  0.76438533  0.50663127  0.42396960  1
  Li  Li1  1  0.61111242  0.51614898  0.76969481  1
  Li  Li2  1  0.00000000  0.00000000  0.50000000  1
  Li  Li3  1  0.38888758  0.48385102  0.23030519  1
  Li  Li4  1  0.23561467  0.49336873  0.57603040  1
  V  V5  1  0.00000000  0.50000000  0.00000000  1
  V  V6  1  0.79863067  0.01258739  0.88159405  1
  V  V7  1  0.20136933  0.98741261  0.11840595  1
  Ni  Ni8  1  0.40366854  0.99573669  0.68295930  1
  Ni  Ni9  1  0.59633146  0.00426331  0.31704070  1
  O  O10  1  0.17546858  0.23703921  0.87268099  1
  O  O11  1  0.39261575  0.77731187  0.95687378  1
  O  O12  1  0.59390212  0.75728026  0.55045870  1
  O  O13  1  0.01918478  0.24271303  0.22404420  1
  O  O14  1  0.80470360  0.23513420  0.67289965  1
  O  O15  1  0.19529640  0.76486580  0.32710035  1
  O  O16  1  0.98081522  0.75728697  0.77595580  1
  O  O17  1  0.40609788  0.24271974  0.44954130  1
  O  O18  1  0.60738425  0.22268813  0.04312622  1
  O  O19  1  0.82453142  0.76296079  0.12731901  1
