# generated using pymatgen
data_U2Al3C4
_symmetry_space_group_name_H-M   'P 1'
_cell_length_a   3.39821800
_cell_length_b   3.39821800
_cell_length_c   23.33249635
_cell_angle_alpha   90.00000000
_cell_angle_beta   90.00000000
_cell_angle_gamma   120.00000000
_symmetry_Int_Tables_number   1
_chemical_formula_structural   U2Al3C4
_chemical_formula_sum   'U4 Al6 C8'
_cell_volume   233.34274939
_cell_formula_units_Z   2
loop_
 _symmetry_equiv_pos_site_id
 _symmetry_equiv_pos_as_xyz
  1  'x, y, z'
loop_
 _atom_site_type_symbol
 _atom_site_label
 _atom_site_symmetry_multiplicity
 _atom_site_fract_x
 _atom_site_fract_y
 _atom_site_fract_z
 _atom_site_occupancy
  U  U0  1  0.66666667  0.33333333  0.43594826  1
  U  U1  1  0.33333333  0.66666667  0.93594826  1
  U  U2  1  0.66666667  0.33333333  0.06405174  1
  U  U3  1  0.33333333  0.66666667  0.56405174  1
  Al  Al4  1  0.00000000  0.00000000  0.33507139  1
  Al  Al5  1  0.00000000  0.00000000  0.83507139  1
  Al  Al6  1  0.66666667  0.33333333  0.74635809  1
  Al  Al7  1  0.33333333  0.66666667  0.24635809  1
  Al  Al8  1  0.00000000  0.00000000  0.16492861  1
  Al  Al9  1  0.00000000  0.00000000  0.66492861  1
  C  C10  1  0.00000000  0.00000000  0.75000000  1
  C  C11  1  0.00000000  0.00000000  0.25000000  1
  C  C12  1  0.00000000  0.00000000  0.50000000  1
  C  C13  1  0.00000000  0.00000000  0.00000000  1
  C  C14  1  0.66666667  0.33333333  0.63319708  1
  C  C15  1  0.33333333  0.66666667  0.13319708  1
  C  C16  1  0.33333333  0.66666667  0.36680292  1
  C  C17  1  0.66666667  0.33333333  0.86680292  1
