# generated using pymatgen
data_LiMnP3HO10
_symmetry_space_group_name_H-M   'P 1'
_cell_length_a   12.15134000
_cell_length_b   8.11050200
_cell_length_c   9.44800838
_cell_angle_alpha   90.00000000
_cell_angle_beta   109.92706513
_cell_angle_gamma   90.00000000
_symmetry_Int_Tables_number   1
_chemical_formula_structural   LiMnP3HO10
_chemical_formula_sum   'Li4 Mn4 P12 H4 O40'
_cell_volume   875.38441985
_cell_formula_units_Z   4
loop_
 _symmetry_equiv_pos_site_id
 _symmetry_equiv_pos_as_xyz
  1  'x, y, z'
loop_
 _atom_site_type_symbol
 _atom_site_label
 _atom_site_symmetry_multiplicity
 _atom_site_fract_x
 _atom_site_fract_y
 _atom_site_fract_z
 _atom_site_occupancy
  Li  Li0  1  0.50000000  0.06560800  0.75000000  1
  Li  Li1  1  0.50000000  0.93439200  0.25000000  1
  Li  Li2  1  0.00000000  0.56560800  0.75000000  1
  Li  Li3  1  0.00000000  0.43439200  0.25000000  1
  Mn  Mn4  1  0.75000000  0.25000000  0.50000000  1
  Mn  Mn5  1  0.75000000  0.75000000  0.00000000  1
  Mn  Mn6  1  0.25000000  0.75000000  0.50000000  1
  Mn  Mn7  1  0.25000000  0.25000000  0.00000000  1
  P  P8  1  0.20783850  0.93094050  0.79428300  1
  P  P9  1  0.20783850  0.06905950  0.29428300  1
  P  P10  1  0.50000000  0.63725800  0.75000000  1
  P  P11  1  0.50000000  0.36274200  0.25000000  1
  P  P12  1  0.79216150  0.93094050  0.70571700  1
  P  P13  1  0.79216150  0.06905950  0.20571700  1
  P  P14  1  0.70783850  0.43094050  0.79428300  1
  P  P15  1  0.70783850  0.56905950  0.29428300  1
  P  P16  1  0.00000000  0.13725800  0.75000000  1
  P  P17  1  0.00000000  0.86274200  0.25000000  1
  P  P18  1  0.29216150  0.43094050  0.70571700  1
  P  P19  1  0.29216150  0.56905950  0.20571700  1
  H  H20  1  0.75000000  0.25000000  0.00000000  1
  H  H21  1  0.75000000  0.75000000  0.50000000  1
  H  H22  1  0.25000000  0.75000000  0.00000000  1
  H  H23  1  0.25000000  0.25000000  0.50000000  1
  O  O24  1  0.08413350  0.01468250  0.70012900  1
  O  O25  1  0.08413350  0.98531750  0.20012900  1
  O  O26  1  0.28716850  0.05946750  0.90077100  1
  O  O27  1  0.26346750  0.88884550  0.67741200  1
  O  O28  1  0.32279450  0.28439950  0.62179600  1
  O  O29  1  0.28716850  0.94053250  0.40077100  1
  O  O30  1  0.26346750  0.11115450  0.17741200  1
  O  O31  1  0.43501900  0.73262500  0.61010300  1
  O  O32  1  0.32279450  0.71560050  0.12179600  1
  O  O33  1  0.56498100  0.73262500  0.88989700  1
  O  O34  1  0.43501900  0.26737500  0.11010300  1
  O  O35  1  0.67720550  0.28439950  0.87820400  1
  O  O36  1  0.56498100  0.26737500  0.38989700  1
  O  O37  1  0.73653250  0.88884550  0.82258800  1
  O  O38  1  0.71283150  0.05946750  0.59922900  1
  O  O39  1  0.67720550  0.71560050  0.37820400  1
  O  O40  1  0.73653250  0.11115450  0.32258800  1
  O  O41  1  0.71283150  0.94053250  0.09922900  1
  O  O42  1  0.91586650  0.01468250  0.79987100  1
  O  O43  1  0.91586650  0.98531750  0.29987100  1
  O  O44  1  0.58413350  0.51468250  0.70012900  1
  O  O45  1  0.58413350  0.48531750  0.20012900  1
  O  O46  1  0.78716850  0.55946750  0.90077100  1
  O  O47  1  0.76346750  0.38884550  0.67741200  1
  O  O48  1  0.82279450  0.78439950  0.62179600  1
  O  O49  1  0.78716850  0.44053250  0.40077100  1
  O  O50  1  0.76346750  0.61115450  0.17741200  1
  O  O51  1  0.93501900  0.23262500  0.61010300  1
  O  O52  1  0.82279450  0.21560050  0.12179600  1
  O  O53  1  0.06498100  0.23262500  0.88989700  1
  O  O54  1  0.93501900  0.76737500  0.11010300  1
  O  O55  1  0.17720550  0.78439950  0.87820400  1
  O  O56  1  0.06498100  0.76737500  0.38989700  1
  O  O57  1  0.23653250  0.38884550  0.82258800  1
  O  O58  1  0.21283150  0.55946750  0.59922900  1
  O  O59  1  0.17720550  0.21560050  0.37820400  1
  O  O60  1  0.23653250  0.61115450  0.32258800  1
  O  O61  1  0.21283150  0.44053250  0.09922900  1
  O  O62  1  0.41586650  0.51468250  0.79987100  1
  O  O63  1  0.41586650  0.48531750  0.29987100  1
