# generated using pymatgen
data_Li3MnV3O8
_symmetry_space_group_name_H-M   'P 1'
_cell_length_a   12.51531800
_cell_length_b   4.07801000
_cell_length_c   6.61762845
_cell_angle_alpha   90.00000000
_cell_angle_beta   107.58701514
_cell_angle_gamma   90.00000000
_symmetry_Int_Tables_number   1
_chemical_formula_structural   Li3MnV3O8
_chemical_formula_sum   'Li6 Mn2 V6 O16'
_cell_volume   321.96120691
_cell_formula_units_Z   2
loop_
 _symmetry_equiv_pos_site_id
 _symmetry_equiv_pos_as_xyz
  1  'x, y, z'
loop_
 _atom_site_type_symbol
 _atom_site_label
 _atom_site_symmetry_multiplicity
 _atom_site_fract_x
 _atom_site_fract_y
 _atom_site_fract_z
 _atom_site_occupancy
  Li  Li0  1  0.06065300  0.00000000  0.36574200  1
  Li  Li1  1  0.17700200  0.00000000  0.00372900  1
  Li  Li2  1  0.43780200  0.50000000  0.63246600  1
  Li  Li3  1  0.56065300  0.50000000  0.36574200  1
  Li  Li4  1  0.67700200  0.50000000  0.00372900  1
  Li  Li5  1  0.93780200  0.00000000  0.63246600  1
  Mn  Mn6  1  0.21414500  0.50000000  0.30340600  1
  Mn  Mn7  1  0.71414500  0.00000000  0.30340600  1
  V  V8  1  0.29122500  0.00000000  0.69410800  1
  V  V9  1  0.10779200  0.50000000  0.69854200  1
  V  V10  1  0.39558400  0.00000000  0.29110500  1
  V  V11  1  0.79122500  0.50000000  0.69410800  1
  V  V12  1  0.60779200  0.00000000  0.69854200  1
  V  V13  1  0.89558400  0.50000000  0.29110500  1
  O  O14  1  0.13894900  0.50000000  0.97626100  1
  O  O15  1  0.12044600  0.00000000  0.68726000  1
  O  O16  1  0.05881600  0.50000000  0.37432800  1
  O  O17  1  0.23814200  0.00000000  0.34765200  1
  O  O18  1  0.26878100  0.50000000  0.67175300  1
  O  O19  1  0.44066400  0.00000000  0.62846000  1
  O  O20  1  0.34156900  0.00000000  0.00874200  1
  O  O21  1  0.39468600  0.50000000  0.32212000  1
  O  O22  1  0.63894900  0.00000000  0.97626100  1
  O  O23  1  0.62044600  0.50000000  0.68726000  1
  O  O24  1  0.55881600  0.00000000  0.37432800  1
  O  O25  1  0.73814200  0.50000000  0.34765200  1
  O  O26  1  0.76878100  0.00000000  0.67175300  1
  O  O27  1  0.94066400  0.50000000  0.62846000  1
  O  O28  1  0.84156900  0.50000000  0.00874200  1
  O  O29  1  0.89468600  0.00000000  0.32212000  1
