# generated using pymatgen
data_CsNpCuS3
_symmetry_space_group_name_H-M   'P 1'
_cell_length_a   4.02188400
_cell_length_b   15.48063400
_cell_length_c   10.19887200
_cell_angle_alpha   90.00000000
_cell_angle_beta   90.00000000
_cell_angle_gamma   90.00000000
_symmetry_Int_Tables_number   1
_chemical_formula_structural   CsNpCuS3
_chemical_formula_sum   'Cs4 Np4 Cu4 S12'
_cell_volume   634.99517402
_cell_formula_units_Z   4
loop_
 _symmetry_equiv_pos_site_id
 _symmetry_equiv_pos_as_xyz
  1  'x, y, z'
loop_
 _atom_site_type_symbol
 _atom_site_label
 _atom_site_symmetry_multiplicity
 _atom_site_fract_x
 _atom_site_fract_y
 _atom_site_fract_z
 _atom_site_occupancy
  Cs  Cs0  1  0.00000000  0.25958900  0.75000000  1
  Cs  Cs1  1  0.50000000  0.24041100  0.25000000  1
  Cs  Cs2  1  0.50000000  0.75958900  0.75000000  1
  Cs  Cs3  1  0.00000000  0.74041100  0.25000000  1
  Np  Np4  1  0.00000000  0.00000000  0.00000000  1
  Np  Np5  1  0.00000000  0.00000000  0.50000000  1
  Np  Np6  1  0.50000000  0.50000000  0.00000000  1
  Np  Np7  1  0.50000000  0.50000000  0.50000000  1
  Cu  Cu8  1  0.50000000  0.03458000  0.75000000  1
  Cu  Cu9  1  0.00000000  0.46542000  0.25000000  1
  Cu  Cu10  1  0.00000000  0.53458000  0.75000000  1
  Cu  Cu11  1  0.50000000  0.96542000  0.25000000  1
  S  S12  1  0.50000000  0.11201600  0.94242300  1
  S  S13  1  0.50000000  0.44875600  0.75000000  1
  S  S14  1  0.50000000  0.11201600  0.55757700  1
  S  S15  1  0.00000000  0.38798400  0.44242300  1
  S  S16  1  0.00000000  0.05124400  0.25000000  1
  S  S17  1  0.00000000  0.38798400  0.05757700  1
  S  S18  1  0.00000000  0.61201600  0.94242300  1
  S  S19  1  0.00000000  0.94875600  0.75000000  1
  S  S20  1  0.00000000  0.61201600  0.55757700  1
  S  S21  1  0.50000000  0.88798400  0.44242300  1
  S  S22  1  0.50000000  0.55124400  0.25000000  1
  S  S23  1  0.50000000  0.88798400  0.05757700  1
