# generated using pymatgen
data_Li4CoO3F
_symmetry_space_group_name_H-M   'P 1'
_cell_length_a   7.31413559
_cell_length_b   7.86962560
_cell_length_c   6.69618200
_cell_angle_alpha   90.00000000
_cell_angle_beta   90.00000000
_cell_angle_gamma   90.00000000
_symmetry_Int_Tables_number   1
_chemical_formula_structural   Li4CoO3F
_chemical_formula_sum   'Li16 Co4 O12 F4'
_cell_volume   385.42894642
_cell_formula_units_Z   4
loop_
 _symmetry_equiv_pos_site_id
 _symmetry_equiv_pos_as_xyz
  1  'x, y, z'
loop_
 _atom_site_type_symbol
 _atom_site_label
 _atom_site_symmetry_multiplicity
 _atom_site_fract_x
 _atom_site_fract_y
 _atom_site_fract_z
 _atom_site_occupancy
  Li  Li0  1  0.00377175  0.66329575  0.99512250  1
  Li  Li1  1  0.99622825  0.66329575  0.49512250  1
  Li  Li2  1  0.99622825  0.33670425  0.49512250  1
  Li  Li3  1  0.00377175  0.33670425  0.99512250  1
  Li  Li4  1  0.23743500  0.84552500  0.74006300  1
  Li  Li5  1  0.76256500  0.84552500  0.24006300  1
  Li  Li6  1  0.76256500  0.15447500  0.24006300  1
  Li  Li7  1  0.23743500  0.15447500  0.74006300  1
  Li  Li8  1  0.50377175  0.16329575  0.99512250  1
  Li  Li9  1  0.49622825  0.16329575  0.49512250  1
  Li  Li10  1  0.49622825  0.83670425  0.49512250  1
  Li  Li11  1  0.50377175  0.83670425  0.99512250  1
  Li  Li12  1  0.73743500  0.34552500  0.74006300  1
  Li  Li13  1  0.26256500  0.34552500  0.24006300  1
  Li  Li14  1  0.26256500  0.65447500  0.24006300  1
  Li  Li15  1  0.73743500  0.65447500  0.74006300  1
  Co  Co16  1  0.12184300  0.00000000  0.31768800  1
  Co  Co17  1  0.87815700  0.00000000  0.81768800  1
  Co  Co18  1  0.62184300  0.50000000  0.31768800  1
  Co  Co19  1  0.37815700  0.50000000  0.81768800  1
  O  O20  1  0.29153725  0.00000000  0.51103100  1
  O  O21  1  0.70846275  0.00000000  0.01103100  1
  O  O22  1  0.96970200  0.79606100  0.74813700  1
  O  O23  1  0.03029800  0.79606100  0.24813700  1
  O  O24  1  0.03029800  0.20393900  0.24813700  1
  O  O25  1  0.96970200  0.20393900  0.74813700  1
  O  O26  1  0.79153725  0.50000000  0.51103100  1
  O  O27  1  0.20846275  0.50000000  0.01103100  1
  O  O28  1  0.46970200  0.29606100  0.74813700  1
  O  O29  1  0.53029800  0.29606100  0.24813700  1
  O  O30  1  0.53029800  0.70393900  0.24813700  1
  O  O31  1  0.46970200  0.70393900  0.74813700  1
  F  F32  1  0.69135675  0.00000000  0.45463750  1
  F  F33  1  0.30864325  0.00000000  0.95463750  1
  F  F34  1  0.19135675  0.50000000  0.45463750  1
  F  F35  1  0.80864325  0.50000000  0.95463750  1
