# generated using pymatgen
data_Li2Ni3(P2O7)2
_symmetry_space_group_name_H-M   'P 1'
_cell_length_a   6.38359600
_cell_length_b   7.26579100
_cell_length_c   13.10421823
_cell_angle_alpha   90.00000000
_cell_angle_beta   94.68459674
_cell_angle_gamma   90.00000000
_symmetry_Int_Tables_number   1
_chemical_formula_structural   Li2Ni3(P2O7)2
_chemical_formula_sum   'Li4 Ni6 P8 O28'
_cell_volume   605.76777999
_cell_formula_units_Z   2
loop_
 _symmetry_equiv_pos_site_id
 _symmetry_equiv_pos_as_xyz
  1  'x, y, z'
loop_
 _atom_site_type_symbol
 _atom_site_label
 _atom_site_symmetry_multiplicity
 _atom_site_fract_x
 _atom_site_fract_y
 _atom_site_fract_z
 _atom_site_occupancy
  Li  Li0  1  0.53784400  0.30905700  0.02895300  1
  Li  Li1  1  0.06849100  0.24503900  0.39966600  1
  Li  Li2  1  0.93150900  0.74503900  0.60033400  1
  Li  Li3  1  0.46215600  0.80905700  0.97104700  1
  Ni  Ni4  1  0.81468900  0.01143400  0.09766500  1
  Ni  Ni5  1  0.27696800  0.61191000  0.27511200  1
  Ni  Ni6  1  0.57841500  0.10796400  0.39855000  1
  Ni  Ni7  1  0.42158500  0.60796400  0.60145000  1
  Ni  Ni8  1  0.72303200  0.11191000  0.72488800  1
  Ni  Ni9  1  0.18531100  0.51143400  0.90233500  1
  P  P10  1  0.08196300  0.31048600  0.11417000  1
  P  P11  1  0.35439100  0.98512000  0.16807600  1
  P  P12  1  0.85919100  0.79511600  0.30650800  1
  P  P13  1  0.62899200  0.51349500  0.42096000  1
  P  P14  1  0.37100800  0.01349500  0.57904000  1
  P  P15  1  0.14080900  0.29511600  0.69349200  1
  P  P16  1  0.64560900  0.48512000  0.83192400  1
  P  P17  1  0.91803700  0.81048600  0.88583000  1
  O  O18  1  0.22737700  0.38383400  0.03663200  1
  O  O19  1  0.84779600  0.29405500  0.07867900  1
  O  O20  1  0.13165300  0.08371600  0.12416300  1
  O  O21  1  0.50470900  0.05395200  0.08963800  1
  O  O22  1  0.31948300  0.77847800  0.15840400  1
  O  O23  1  0.13181900  0.38843100  0.22087900  1
  O  O24  1  0.83915800  0.80455300  0.19078600  1
  O  O25  1  0.39548900  0.05669300  0.27614600  1
  O  O26  1  0.66095400  0.65726200  0.32864500  1
  O  O27  1  0.39081400  0.47985800  0.40484500  1
  O  O28  1  0.05505900  0.69950900  0.35442700  1
  O  O29  1  0.75697900  0.33743700  0.40593100  1
  O  O30  1  0.82795900  0.97814200  0.36202100  1
  O  O31  1  0.68668100  0.61089700  0.52349300  1
  O  O32  1  0.31331900  0.11089700  0.47650700  1
  O  O33  1  0.17204100  0.47814200  0.63797900  1
  O  O34  1  0.24302100  0.83743700  0.59406900  1
  O  O35  1  0.94494100  0.19950900  0.64557300  1
  O  O36  1  0.60918600  0.97985800  0.59515500  1
  O  O37  1  0.33904600  0.15726200  0.67135500  1
  O  O38  1  0.60451100  0.55669300  0.72385400  1
  O  O39  1  0.16084200  0.30455300  0.80921400  1
  O  O40  1  0.86818100  0.88843100  0.77912100  1
  O  O41  1  0.68051700  0.27847800  0.84159600  1
  O  O42  1  0.49529100  0.55395200  0.91036200  1
  O  O43  1  0.86834700  0.58371600  0.87583700  1
  O  O44  1  0.15220400  0.79405500  0.92132100  1
  O  O45  1  0.77262300  0.88383400  0.96336800  1
