# generated using pymatgen
data_Ta8Cr3O24
_symmetry_space_group_name_H-M   'P 1'
_cell_length_a   6.74102200
_cell_length_b   6.77373000
_cell_length_c   18.56856600
_cell_angle_alpha   90.00000000
_cell_angle_beta   90.00000000
_cell_angle_gamma   90.00000000
_symmetry_Int_Tables_number   1
_chemical_formula_structural   Ta8Cr3O24
_chemical_formula_sum   'Ta16 Cr6 O48'
_cell_volume   847.87531591
_cell_formula_units_Z   2
loop_
 _symmetry_equiv_pos_site_id
 _symmetry_equiv_pos_as_xyz
  1  'x, y, z'
loop_
 _atom_site_type_symbol
 _atom_site_label
 _atom_site_symmetry_multiplicity
 _atom_site_fract_x
 _atom_site_fract_y
 _atom_site_fract_z
 _atom_site_occupancy
  Ta  Ta0  1  0.00000000  0.50000000  0.17603600  1
  Ta  Ta1  1  0.00000000  0.50000000  0.34746900  1
  Ta  Ta2  1  0.50000000  0.00000000  0.49951000  1
  Ta  Ta3  1  0.50000000  0.50000000  0.41568300  1
  Ta  Ta4  1  0.00000000  0.00000000  0.08520700  1
  Ta  Ta5  1  0.50000000  0.50000000  0.07731200  1
  Ta  Ta6  1  0.50000000  0.00000000  0.16541800  1
  Ta  Ta7  1  0.50000000  0.00000000  0.32786100  1
  Ta  Ta8  1  0.50000000  0.00000000  0.67603600  1
  Ta  Ta9  1  0.50000000  0.00000000  0.84746900  1
  Ta  Ta10  1  0.00000000  0.50000000  0.99951000  1
  Ta  Ta11  1  0.00000000  0.00000000  0.91568300  1
  Ta  Ta12  1  0.50000000  0.50000000  0.58520700  1
  Ta  Ta13  1  0.00000000  0.00000000  0.57731200  1
  Ta  Ta14  1  0.00000000  0.50000000  0.66541800  1
  Ta  Ta15  1  0.00000000  0.50000000  0.82786100  1
  Cr  Cr16  1  0.50000000  0.50000000  0.24724800  1
  Cr  Cr17  1  0.00000000  0.00000000  0.25717500  1
  Cr  Cr18  1  0.00000000  0.50000000  0.49991300  1
  Cr  Cr19  1  0.00000000  0.00000000  0.74724800  1
  Cr  Cr20  1  0.50000000  0.50000000  0.75717500  1
  Cr  Cr21  1  0.50000000  0.00000000  0.99991300  1
  O  O22  1  0.71426600  0.50000000  0.01065200  1
  O  O23  1  0.19047600  0.00000000  0.00015500  1
  O  O24  1  0.69332700  0.50000000  0.33561000  1
  O  O25  1  0.00000000  0.69070850  0.41765050  1
  O  O26  1  0.00000000  0.69648850  0.24865150  1
  O  O27  1  0.00000000  0.30351150  0.24865150  1
  O  O28  1  0.00000000  0.30929150  0.41765050  1
  O  O29  1  0.50000000  0.80262100  0.41873600  1
  O  O30  1  0.00000000  0.30125900  0.08390400  1
  O  O31  1  0.29908100  0.50000000  0.16390700  1
  O  O32  1  0.78053700  0.00000000  0.32144500  1
  O  O33  1  0.30667300  0.50000000  0.33561000  1
  O  O34  1  0.70091900  0.50000000  0.16390700  1
  O  O35  1  0.19833700  0.00000000  0.16254100  1
  O  O36  1  0.21946300  0.00000000  0.32144500  1
  O  O37  1  0.50000000  0.19737900  0.41873600  1
  O  O38  1  0.00000000  0.69874100  0.08390400  1
  O  O39  1  0.50000000  0.20014000  0.08496800  1
  O  O40  1  0.50000000  0.19576800  0.24414500  1
  O  O41  1  0.50000000  0.80423200  0.24414500  1
  O  O42  1  0.50000000  0.79986000  0.08496800  1
  O  O43  1  0.80166300  0.00000000  0.16254100  1
  O  O44  1  0.80952400  0.00000000  0.00015500  1
  O  O45  1  0.28573400  0.50000000  0.01065200  1
  O  O46  1  0.21426600  0.00000000  0.51065200  1
  O  O47  1  0.69047600  0.50000000  0.50015500  1
  O  O48  1  0.19332700  0.00000000  0.83561000  1
  O  O49  1  0.50000000  0.19070850  0.91765050  1
  O  O50  1  0.50000000  0.19648850  0.74865150  1
  O  O51  1  0.50000000  0.80351150  0.74865150  1
  O  O52  1  0.50000000  0.80929150  0.91765050  1
  O  O53  1  0.00000000  0.30262100  0.91873600  1
  O  O54  1  0.50000000  0.80125900  0.58390400  1
  O  O55  1  0.79908100  0.00000000  0.66390700  1
  O  O56  1  0.28053700  0.50000000  0.82144500  1
  O  O57  1  0.80667300  0.00000000  0.83561000  1
  O  O58  1  0.20091900  0.00000000  0.66390700  1
  O  O59  1  0.69833700  0.50000000  0.66254100  1
  O  O60  1  0.71946300  0.50000000  0.82144500  1
  O  O61  1  0.00000000  0.69737900  0.91873600  1
  O  O62  1  0.50000000  0.19874100  0.58390400  1
  O  O63  1  0.00000000  0.70014000  0.58496800  1
  O  O64  1  0.00000000  0.69576800  0.74414500  1
  O  O65  1  0.00000000  0.30423200  0.74414500  1
  O  O66  1  0.00000000  0.29986000  0.58496800  1
  O  O67  1  0.30166300  0.50000000  0.66254100  1
  O  O68  1  0.30952400  0.50000000  0.50015500  1
  O  O69  1  0.78573400  0.00000000  0.51065200  1
