# generated using pymatgen
data_LiFeO2
_symmetry_space_group_name_H-M   'P 1'
_cell_length_a   8.44887760
_cell_length_b   8.44887760
_cell_length_c   8.44887760
_cell_angle_alpha   90.00000000
_cell_angle_beta   90.00000000
_cell_angle_gamma   90.00000000
_symmetry_Int_Tables_number   1
_chemical_formula_structural   LiFeO2
_chemical_formula_sum   'Li16 Fe16 O32'
_cell_volume   603.11073017
_cell_formula_units_Z   16
loop_
 _symmetry_equiv_pos_site_id
 _symmetry_equiv_pos_as_xyz
  1  'x, y, z'
loop_
 _atom_site_type_symbol
 _atom_site_label
 _atom_site_symmetry_multiplicity
 _atom_site_fract_x
 _atom_site_fract_y
 _atom_site_fract_z
 _atom_site_occupancy
  Li  Li0  1  0.37500000  0.12500000  0.87500000  1
  Li  Li1  1  0.12500000  0.87500000  0.37500000  1
  Li  Li2  1  0.12500000  0.62500000  0.12500000  1
  Li  Li3  1  0.37500000  0.87500000  0.12500000  1
  Li  Li4  1  0.37500000  0.62500000  0.37500000  1
  Li  Li5  1  0.12500000  0.37500000  0.87500000  1
  Li  Li6  1  0.12500000  0.12500000  0.62500000  1
  Li  Li7  1  0.37500000  0.37500000  0.62500000  1
  Li  Li8  1  0.87500000  0.12500000  0.37500000  1
  Li  Li9  1  0.62500000  0.87500000  0.87500000  1
  Li  Li10  1  0.62500000  0.62500000  0.62500000  1
  Li  Li11  1  0.87500000  0.87500000  0.62500000  1
  Li  Li12  1  0.87500000  0.62500000  0.87500000  1
  Li  Li13  1  0.62500000  0.37500000  0.37500000  1
  Li  Li14  1  0.62500000  0.12500000  0.12500000  1
  Li  Li15  1  0.87500000  0.37500000  0.12500000  1
  Fe  Fe16  1  0.37500000  0.12500000  0.37500000  1
  Fe  Fe17  1  0.37500000  0.37500000  0.12500000  1
  Fe  Fe18  1  0.62500000  0.37500000  0.87500000  1
  Fe  Fe19  1  0.12500000  0.12500000  0.12500000  1
  Fe  Fe20  1  0.37500000  0.62500000  0.87500000  1
  Fe  Fe21  1  0.37500000  0.87500000  0.62500000  1
  Fe  Fe22  1  0.62500000  0.87500000  0.37500000  1
  Fe  Fe23  1  0.12500000  0.62500000  0.62500000  1
  Fe  Fe24  1  0.87500000  0.12500000  0.87500000  1
  Fe  Fe25  1  0.87500000  0.37500000  0.62500000  1
  Fe  Fe26  1  0.12500000  0.37500000  0.37500000  1
  Fe  Fe27  1  0.62500000  0.12500000  0.62500000  1
  Fe  Fe28  1  0.87500000  0.62500000  0.37500000  1
  Fe  Fe29  1  0.87500000  0.87500000  0.12500000  1
  Fe  Fe30  1  0.12500000  0.87500000  0.87500000  1
  Fe  Fe31  1  0.62500000  0.62500000  0.12500000  1
  O  O32  1  0.36787117  0.13212883  0.13212883  1
  O  O33  1  0.13212883  0.36787117  0.13212883  1
  O  O34  1  0.61787117  0.11787117  0.38212883  1
  O  O35  1  0.36787117  0.86787117  0.86787117  1
  O  O36  1  0.38212883  0.88212883  0.38212883  1
  O  O37  1  0.13212883  0.63212883  0.86787117  1
  O  O38  1  0.61787117  0.38212883  0.11787117  1
  O  O39  1  0.38212883  0.61787117  0.11787117  1
  O  O40  1  0.36787117  0.63212883  0.63212883  1
  O  O41  1  0.13212883  0.86787117  0.63212883  1
  O  O42  1  0.61787117  0.61787117  0.88212883  1
  O  O43  1  0.36787117  0.36787117  0.36787117  1
  O  O44  1  0.38212883  0.38212883  0.88212883  1
  O  O45  1  0.13212883  0.13212883  0.36787117  1
  O  O46  1  0.61787117  0.88212883  0.61787117  1
  O  O47  1  0.38212883  0.11787117  0.61787117  1
  O  O48  1  0.86787117  0.13212883  0.63212883  1
  O  O49  1  0.63212883  0.36787117  0.63212883  1
  O  O50  1  0.11787117  0.11787117  0.88212883  1
  O  O51  1  0.86787117  0.86787117  0.36787117  1
  O  O52  1  0.88212883  0.88212883  0.88212883  1
  O  O53  1  0.63212883  0.63212883  0.36787117  1
  O  O54  1  0.11787117  0.38212883  0.61787117  1
  O  O55  1  0.88212883  0.61787117  0.61787117  1
  O  O56  1  0.86787117  0.63212883  0.13212883  1
  O  O57  1  0.63212883  0.86787117  0.13212883  1
  O  O58  1  0.11787117  0.61787117  0.38212883  1
  O  O59  1  0.86787117  0.36787117  0.86787117  1
  O  O60  1  0.88212883  0.38212883  0.38212883  1
  O  O61  1  0.63212883  0.13212883  0.86787117  1
  O  O62  1  0.11787117  0.88212883  0.11787117  1
  O  O63  1  0.88212883  0.11787117  0.11787117  1
