# generated using pymatgen
data_Li2CrFe(PO4)2
_symmetry_space_group_name_H-M   'P 1'
_cell_length_a   4.77893274
_cell_length_b   5.97806404
_cell_length_c   10.76937635
_cell_angle_alpha   90.00000000
_cell_angle_beta   91.83040608
_cell_angle_gamma   90.00000000
_symmetry_Int_Tables_number   1
_chemical_formula_structural   Li2CrFe(PO4)2
_chemical_formula_sum   'Li4 Cr2 Fe2 P4 O16'
_cell_volume   307.51080488
_cell_formula_units_Z   2
loop_
 _symmetry_equiv_pos_site_id
 _symmetry_equiv_pos_as_xyz
  1  'x, y, z'
loop_
 _atom_site_type_symbol
 _atom_site_label
 _atom_site_symmetry_multiplicity
 _atom_site_fract_x
 _atom_site_fract_y
 _atom_site_fract_z
 _atom_site_occupancy
  Li  Li0  1  0.00000000  0.00000000  0.00000000  1
  Li  Li1  1  0.00000000  0.50000000  0.00000000  1
  Li  Li2  1  0.50000000  0.00000000  0.50000000  1
  Li  Li3  1  0.50000000  0.50000000  0.50000000  1
  Cr  Cr4  1  0.50731550  0.75000000  0.22455850  1
  Cr  Cr5  1  0.49268450  0.25000000  0.77544150  1
  Fe  Fe6  1  0.01843950  0.75000000  0.72049850  1
  Fe  Fe7  1  0.98156050  0.25000000  0.27950150  1
  P  P8  1  0.41059750  0.25000000  0.09866250  1
  P  P9  1  0.58940250  0.75000000  0.90133750  1
  P  P10  1  0.92110550  0.75000000  0.41239350  1
  P  P11  1  0.07889450  0.25000000  0.58760650  1
  O  O12  1  0.71987750  0.75000000  0.03480550  1
  O  O13  1  0.28012250  0.25000000  0.96519450  1
  O  O14  1  0.73282450  0.25000000  0.10367450  1
  O  O15  1  0.26717550  0.75000000  0.89632550  1
  O  O16  1  0.23944550  0.75000000  0.41645150  1
  O  O17  1  0.76055450  0.25000000  0.58354850  1
  O  O18  1  0.21012250  0.25000000  0.45770550  1
  O  O19  1  0.78987750  0.75000000  0.54229450  1
  O  O20  1  0.28143850  0.04212000  0.16737850  1
  O  O21  1  0.28143850  0.45788000  0.16737850  1
  O  O22  1  0.71856150  0.54212000  0.83262150  1
  O  O23  1  0.71856150  0.95788000  0.83262150  1
  O  O24  1  0.78637550  0.54610000  0.33764350  1
  O  O25  1  0.78637550  0.95390000  0.33764350  1
  O  O26  1  0.21362450  0.04610000  0.66235650  1
  O  O27  1  0.21362450  0.45390000  0.66235650  1
