# generated using pymatgen
data_NaLi2MnPCO7
_symmetry_space_group_name_H-M   'P 1'
_cell_length_a   5.07603041
_cell_length_b   6.77181750
_cell_length_c   8.68638145
_cell_angle_alpha   90.00000000
_cell_angle_beta   93.16035792
_cell_angle_gamma   90.00000000
_symmetry_Int_Tables_number   1
_chemical_formula_structural   NaLi2MnPCO7
_chemical_formula_sum   'Na2 Li4 Mn2 P2 C2 O14'
_cell_volume   298.13115114
_cell_formula_units_Z   2
loop_
 _symmetry_equiv_pos_site_id
 _symmetry_equiv_pos_as_xyz
  1  'x, y, z'
loop_
 _atom_site_type_symbol
 _atom_site_label
 _atom_site_symmetry_multiplicity
 _atom_site_fract_x
 _atom_site_fract_y
 _atom_site_fract_z
 _atom_site_occupancy
  Na  Na0  1  0.74053525  0.00296550  0.74544650  1
  Na  Na1  1  0.25946475  0.50296550  0.25455350  1
  Li  Li2  1  0.23764525  0.73690650  0.60332750  1
  Li  Li3  1  0.76235475  0.23690650  0.39667250  1
  Li  Li4  1  0.75801825  0.53728150  0.77860200  1
  Li  Li5  1  0.24198175  0.03728150  0.22139800  1
  Mn  Mn6  1  0.22038825  0.25837650  0.85087300  1
  Mn  Mn7  1  0.77961175  0.75837650  0.14912700  1
  P  P8  1  0.28035925  0.75480350  0.91005300  1
  P  P9  1  0.71964075  0.25480350  0.08994700  1
  C  C10  1  0.28253225  0.23525550  0.53893800  1
  C  C11  1  0.71746775  0.73525550  0.46106200  1
  O  O12  1  0.63671175  0.71770800  0.59998050  1
  O  O13  1  0.36328825  0.21770800  0.40001950  1
  O  O14  1  0.03418525  0.23076750  0.56653050  1
  O  O15  1  0.96581475  0.73076750  0.43346950  1
  O  O16  1  0.45794225  0.25995450  0.65297250  1
  O  O17  1  0.54205775  0.75995450  0.34702750  1
  O  O18  1  0.20607925  0.93770850  0.80865500  1
  O  O19  1  0.79392075  0.43770850  0.19134500  1
  O  O20  1  0.16119725  0.57583350  0.81684250  1
  O  O21  1  0.83880275  0.07583350  0.18315750  1
  O  O22  1  0.58743025  0.73301550  0.92635100  1
  O  O23  1  0.41256975  0.23301550  0.07364900  1
  O  O24  1  0.82131725  0.26950550  0.92497600  1
  O  O25  1  0.17868275  0.76950550  0.07502400  1
