# generated using pymatgen
data_Fe4O5F3
_symmetry_space_group_name_H-M   'P 1'
_cell_length_a   19.18342000
_cell_length_b   6.02906400
_cell_length_c   4.78683365
_cell_angle_alpha   90.00000000
_cell_angle_beta   95.84923698
_cell_angle_gamma   90.00000000
_symmetry_Int_Tables_number   1
_chemical_formula_structural   Fe4O5F3
_chemical_formula_sum   'Fe16 O20 F12'
_cell_volume   550.75342110
_cell_formula_units_Z   4
loop_
 _symmetry_equiv_pos_site_id
 _symmetry_equiv_pos_as_xyz
  1  'x, y, z'
loop_
 _atom_site_type_symbol
 _atom_site_label
 _atom_site_symmetry_multiplicity
 _atom_site_fract_x
 _atom_site_fract_y
 _atom_site_fract_z
 _atom_site_occupancy
  Fe  Fe0  1  0.88510900  0.00000000  0.46254600  1
  Fe  Fe1  1  0.62290800  0.00000000  0.50934100  1
  Fe  Fe2  1  0.63296700  0.50000000  0.46675100  1
  Fe  Fe3  1  0.87278400  0.50000000  0.50490900  1
  Fe  Fe4  1  0.74679950  0.25534350  0.01317500  1
  Fe  Fe5  1  0.99795300  0.75730400  0.00764000  1
  Fe  Fe6  1  0.74679950  0.74465650  0.01317500  1
  Fe  Fe7  1  0.99795300  0.24269600  0.00764000  1
  Fe  Fe8  1  0.38510900  0.50000000  0.46254600  1
  Fe  Fe9  1  0.12290800  0.50000000  0.50934100  1
  Fe  Fe10  1  0.13296700  0.00000000  0.46675100  1
  Fe  Fe11  1  0.37278400  0.00000000  0.50490900  1
  Fe  Fe12  1  0.24679950  0.75534350  0.01317500  1
  Fe  Fe13  1  0.49795300  0.25730400  0.00764000  1
  Fe  Fe14  1  0.24679950  0.24465650  0.01317500  1
  Fe  Fe15  1  0.49795300  0.74269600  0.00764000  1
  O  O16  1  0.95484500  0.00000000  0.18656100  1
  O  O17  1  0.70240300  0.50000000  0.18795900  1
  O  O18  1  0.82704100  0.25293800  0.30418400  1
  O  O19  1  0.57658350  0.76086550  0.30530100  1
  O  O20  1  0.82704100  0.74706200  0.30418400  1
  O  O21  1  0.57658350  0.23913450  0.30530100  1
  O  O22  1  0.67285750  0.75921850  0.69669600  1
  O  O23  1  0.67285750  0.24078150  0.69669600  1
  O  O24  1  0.92431400  0.74214400  0.69100500  1
  O  O25  1  0.92431400  0.25785600  0.69100500  1
  O  O26  1  0.45484500  0.50000000  0.18656100  1
  O  O27  1  0.20240300  0.00000000  0.18795900  1
  O  O28  1  0.32704100  0.75293800  0.30418400  1
  O  O29  1  0.07658350  0.26086550  0.30530100  1
  O  O30  1  0.32704100  0.24706200  0.30418400  1
  O  O31  1  0.07658350  0.73913450  0.30530100  1
  O  O32  1  0.17285750  0.25921850  0.69669600  1
  O  O33  1  0.17285750  0.74078150  0.69669600  1
  O  O34  1  0.42431400  0.24214400  0.69100500  1
  O  O35  1  0.42431400  0.75785600  0.69100500  1
  F  F36  1  0.95122900  0.50000000  0.19014500  1
  F  F37  1  0.70115100  0.00000000  0.20102800  1
  F  F38  1  0.54647300  0.00000000  0.81120000  1
  F  F39  1  0.79670900  0.50000000  0.80554300  1
  F  F40  1  0.54852100  0.50000000  0.81036300  1
  F  F41  1  0.79433600  0.00000000  0.82788200  1
  F  F42  1  0.45122900  0.00000000  0.19014500  1
  F  F43  1  0.20115100  0.50000000  0.20102800  1
  F  F44  1  0.04647300  0.50000000  0.81120000  1
  F  F45  1  0.29670900  0.00000000  0.80554300  1
  F  F46  1  0.04852100  0.00000000  0.81036300  1
  F  F47  1  0.29433600  0.50000000  0.82788200  1
