# generated using pymatgen
data_V3CoO8
_symmetry_space_group_name_H-M   'P 1'
_cell_length_a   8.55441600
_cell_length_b   9.96849600
_cell_length_c   14.55298600
_cell_angle_alpha   90.00000000
_cell_angle_beta   90.00000000
_cell_angle_gamma   90.00000000
_symmetry_Int_Tables_number   1
_chemical_formula_structural   V3CoO8
_chemical_formula_sum   'V24 Co8 O64'
_cell_volume   1241.00095756
_cell_formula_units_Z   8
loop_
 _symmetry_equiv_pos_site_id
 _symmetry_equiv_pos_as_xyz
  1  'x, y, z'
loop_
 _atom_site_type_symbol
 _atom_site_label
 _atom_site_symmetry_multiplicity
 _atom_site_fract_x
 _atom_site_fract_y
 _atom_site_fract_z
 _atom_site_occupancy
  V  V0  1  0.99823900  0.44357100  0.79878100  1
  V  V1  1  0.49823900  0.55642900  0.79878100  1
  V  V2  1  0.19051400  0.16134700  0.84757600  1
  V  V3  1  0.69051400  0.83865300  0.84757600  1
  V  V4  1  0.49848200  0.33127100  0.97803800  1
  V  V5  1  0.99848200  0.66872900  0.97803800  1
  V  V6  1  0.99848200  0.33127100  0.02196200  1
  V  V7  1  0.49848200  0.66872900  0.02196200  1
  V  V8  1  0.69051400  0.16134700  0.15242400  1
  V  V9  1  0.19051400  0.83865300  0.15242400  1
  V  V10  1  0.49823900  0.44357100  0.20121900  1
  V  V11  1  0.99823900  0.55642900  0.20121900  1
  V  V12  1  0.49823900  0.94357100  0.29878100  1
  V  V13  1  0.99823900  0.05642900  0.29878100  1
  V  V14  1  0.69051400  0.66134700  0.34757600  1
  V  V15  1  0.19051400  0.33865300  0.34757600  1
  V  V16  1  0.99848200  0.83127100  0.47803800  1
  V  V17  1  0.49848200  0.16872900  0.47803800  1
  V  V18  1  0.49848200  0.83127100  0.52196200  1
  V  V19  1  0.99848200  0.16872900  0.52196200  1
  V  V20  1  0.19051400  0.66134700  0.65242400  1
  V  V21  1  0.69051400  0.33865300  0.65242400  1
  V  V22  1  0.99823900  0.94357100  0.70121900  1
  V  V23  1  0.49823900  0.05642900  0.70121900  1
  Co  Co24  1  0.80812400  0.17115200  0.84270500  1
  Co  Co25  1  0.30812400  0.82884800  0.84270500  1
  Co  Co26  1  0.30812400  0.17115200  0.15729500  1
  Co  Co27  1  0.80812400  0.82884800  0.15729500  1
  Co  Co28  1  0.30812400  0.67115200  0.34270500  1
  Co  Co29  1  0.80812400  0.32884800  0.34270500  1
  Co  Co30  1  0.80812400  0.67115200  0.65729500  1
  Co  Co31  1  0.30812400  0.32884800  0.65729500  1
  O  O32  1  0.24460800  0.50997000  0.61329200  1
  O  O33  1  0.74460800  0.49003000  0.61329200  1
  O  O34  1  0.50666550  0.41325650  0.73287450  1
  O  O35  1  0.00666550  0.58674350  0.73287450  1
  O  O36  1  0.83352600  0.35253500  0.76605700  1
  O  O37  1  0.66109100  0.65161500  0.77233000  1
  O  O38  1  0.16109100  0.34838500  0.77233000  1
  O  O39  1  0.33352600  0.64746500  0.76605700  1
  O  O40  1  0.00642900  0.22418000  0.91786600  1
  O  O41  1  0.50642900  0.77582000  0.91786600  1
  O  O42  1  0.99373100  0.48317600  0.92074000  1
  O  O43  1  0.49373100  0.51682400  0.92074000  1
  O  O44  1  0.33927050  0.27064950  0.92124550  1
  O  O45  1  0.65652100  0.27857400  0.92176000  1
  O  O46  1  0.83927050  0.72935050  0.92124550  1
  O  O47  1  0.15652100  0.72142600  0.92176000  1
  O  O48  1  0.83927050  0.27064950  0.07875450  1
  O  O49  1  0.33927050  0.72935050  0.07875450  1
  O  O50  1  0.65652100  0.72142600  0.07824000  1
  O  O51  1  0.15652100  0.27857400  0.07824000  1
  O  O52  1  0.49373100  0.48317600  0.07926000  1
  O  O53  1  0.99373100  0.51682400  0.07926000  1
  O  O54  1  0.50642900  0.22418000  0.08213400  1
  O  O55  1  0.00642900  0.77582000  0.08213400  1
  O  O56  1  0.66109100  0.34838500  0.22767000  1
  O  O57  1  0.16109100  0.65161500  0.22767000  1
  O  O58  1  0.83352600  0.64746500  0.23394300  1
  O  O59  1  0.33352600  0.35253500  0.23394300  1
  O  O60  1  0.50666550  0.58674350  0.26712550  1
  O  O61  1  0.00666550  0.41325650  0.26712550  1
  O  O62  1  0.24460800  0.49003000  0.38670800  1
  O  O63  1  0.74460800  0.50997000  0.38670800  1
  O  O64  1  0.74460800  0.00997000  0.11329200  1
  O  O65  1  0.24460800  0.99003000  0.11329200  1
  O  O66  1  0.00666550  0.91325650  0.23287450  1
  O  O67  1  0.50666550  0.08674350  0.23287450  1
  O  O68  1  0.33352600  0.85253500  0.26605700  1
  O  O69  1  0.16109100  0.15161500  0.27233000  1
  O  O70  1  0.66109100  0.84838500  0.27233000  1
  O  O71  1  0.83352600  0.14746500  0.26605700  1
  O  O72  1  0.50642900  0.72418000  0.41786600  1
  O  O73  1  0.00642900  0.27582000  0.41786600  1
  O  O74  1  0.49373100  0.98317600  0.42074000  1
  O  O75  1  0.99373100  0.01682400  0.42074000  1
  O  O76  1  0.83927050  0.77064950  0.42124550  1
  O  O77  1  0.15652100  0.77857400  0.42176000  1
  O  O78  1  0.33927050  0.22935050  0.42124550  1
  O  O79  1  0.65652100  0.22142600  0.42176000  1
  O  O80  1  0.33927050  0.77064950  0.57875450  1
  O  O81  1  0.83927050  0.22935050  0.57875450  1
  O  O82  1  0.15652100  0.22142600  0.57824000  1
  O  O83  1  0.65652100  0.77857400  0.57824000  1
  O  O84  1  0.99373100  0.98317600  0.57926000  1
  O  O85  1  0.49373100  0.01682400  0.57926000  1
  O  O86  1  0.00642900  0.72418000  0.58213400  1
  O  O87  1  0.50642900  0.27582000  0.58213400  1
  O  O88  1  0.16109100  0.84838500  0.72767000  1
  O  O89  1  0.66109100  0.15161500  0.72767000  1
  O  O90  1  0.33352600  0.14746500  0.73394300  1
  O  O91  1  0.83352600  0.85253500  0.73394300  1
  O  O92  1  0.00666550  0.08674350  0.76712550  1
  O  O93  1  0.50666550  0.91325650  0.76712550  1
  O  O94  1  0.74460800  0.99003000  0.88670800  1
  O  O95  1  0.24460800  0.00997000  0.88670800  1
