# generated using pymatgen
data_Nb3Fe(PO4)6
_symmetry_space_group_name_H-M   'P 1'
_cell_length_a   8.78472177
_cell_length_b   8.78472177
_cell_length_c   22.23992900
_cell_angle_alpha   90.00000000
_cell_angle_beta   90.00000000
_cell_angle_gamma   120.00000000
_symmetry_Int_Tables_number   1
_chemical_formula_structural   Nb3Fe(PO4)6
_chemical_formula_sum   'Nb9 Fe3 P18 O72'
_cell_volume   1486.34644897
_cell_formula_units_Z   3
loop_
 _symmetry_equiv_pos_site_id
 _symmetry_equiv_pos_as_xyz
  1  'x, y, z'
loop_
 _atom_site_type_symbol
 _atom_site_label
 _atom_site_symmetry_multiplicity
 _atom_site_fract_x
 _atom_site_fract_y
 _atom_site_fract_z
 _atom_site_occupancy
  Nb  Nb0  1  0.66666667  0.33333333  0.19269733  1
  Nb  Nb1  1  0.33333333  0.66666667  0.30811167  1
  Nb  Nb2  1  0.33333333  0.66666667  0.02681067  1
  Nb  Nb3  1  0.33333333  0.66666667  0.52603067  1
  Nb  Nb4  1  0.00000000  0.00000000  0.64144500  1
  Nb  Nb5  1  0.00000000  0.00000000  0.36014400  1
  Nb  Nb6  1  0.00000000  0.00000000  0.85936400  1
  Nb  Nb7  1  0.66666667  0.33333333  0.97477833  1
  Nb  Nb8  1  0.66666667  0.33333333  0.69347733  1
  Fe  Fe9  1  0.00000000  0.00000000  0.14190700  1
  Fe  Fe10  1  0.66666667  0.33333333  0.47524033  1
  Fe  Fe11  1  0.33333333  0.66666667  0.80857367  1
  P  P12  1  0.71874567  0.71946533  0.24864833  1
  P  P13  1  0.28053467  0.99928033  0.24864833  1
  P  P14  1  0.00071967  0.28125433  0.24864833  1
  P  P15  1  0.67319467  0.04909633  0.08392833  1
  P  P16  1  0.37590167  0.32680533  0.08392833  1
  P  P17  1  0.95090367  0.62409833  0.08392833  1
  P  P18  1  0.38541233  0.05279867  0.58198167  1
  P  P19  1  0.94720133  0.33261367  0.58198167  1
  P  P20  1  0.66738633  0.61458767  0.58198167  1
  P  P21  1  0.33986133  0.38242967  0.41726167  1
  P  P22  1  0.04256833  0.66013867  0.41726167  1
  P  P23  1  0.61757033  0.95743167  0.41726167  1
  P  P24  1  0.05207900  0.38613200  0.91531500  1
  P  P25  1  0.61386800  0.66594700  0.91531500  1
  P  P26  1  0.33405300  0.94792100  0.91531500  1
  P  P27  1  0.00652800  0.71576300  0.75059500  1
  P  P28  1  0.70923500  0.99347200  0.75059500  1
  P  P29  1  0.28423700  0.29076500  0.75059500  1
  O  O30  1  0.83938167  0.52835933  0.02760833  1
  O  O31  1  0.68897767  0.16061833  0.02760833  1
  O  O32  1  0.69431033  0.53144867  0.24297767  1
  O  O33  1  0.47164067  0.31102233  0.02760833  1
  O  O34  1  0.53111433  0.69257667  0.25827367  1
  O  O35  1  0.79878667  0.82739833  0.19296933  1
  O  O36  1  0.46855133  0.16286167  0.24297767  1
  O  O37  1  0.30742333  0.83853767  0.25827367  1
  O  O38  1  0.16146233  0.46888567  0.25827367  1
  O  O39  1  0.64014433  0.13609367  0.13946867  1
  O  O40  1  0.83227567  0.02857333  0.08951733  1
  O  O41  1  0.49594933  0.35985567  0.13946867  1
  O  O42  1  0.17260167  0.97138833  0.19296933  1
  O  O43  1  0.83713833  0.30568967  0.24297767  1
  O  O44  1  0.02861167  0.20121333  0.19296933  1
  O  O45  1  0.50291600  0.86598500  0.07599600  1
  O  O46  1  0.36306900  0.49708400  0.07599600  1
  O  O47  1  0.19629767  0.16772433  0.08951733  1
  O  O48  1  0.86390633  0.50405067  0.13946867  1
  O  O49  1  0.13401500  0.63693100  0.07599600  1
  O  O50  1  0.19730533  0.02538667  0.30632467  1
  O  O51  1  0.97142667  0.80370233  0.08951733  1
  O  O52  1  0.97461333  0.17191867  0.30632467  1
  O  O53  1  0.82808133  0.80269467  0.30632467  1
  O  O54  1  0.50604833  0.86169267  0.36094167  1
  O  O55  1  0.35564433  0.49395167  0.36094167  1
  O  O56  1  0.36097700  0.86478200  0.57631100  1
  O  O57  1  0.13830733  0.64435567  0.36094167  1
  O  O58  1  0.19778100  0.02591000  0.59160700  1
  O  O59  1  0.46545333  0.16073167  0.52630267  1
  O  O60  1  0.13521800  0.49619500  0.57631100  1
  O  O61  1  0.97409000  0.17187100  0.59160700  1
  O  O62  1  0.82812900  0.80221900  0.59160700  1
  O  O63  1  0.30681100  0.46942700  0.47280200  1
  O  O64  1  0.49894233  0.36190667  0.42285067  1
  O  O65  1  0.16261600  0.69318900  0.47280200  1
  O  O66  1  0.83926833  0.30472167  0.52630267  1
  O  O67  1  0.50380500  0.63902300  0.57631100  1
  O  O68  1  0.69527833  0.53454667  0.52630267  1
  O  O69  1  0.16958267  0.19931833  0.40932933  1
  O  O70  1  0.02973567  0.83041733  0.40932933  1
  O  O71  1  0.86296433  0.50105767  0.42285067  1
  O  O72  1  0.53057300  0.83738400  0.47280200  1
  O  O73  1  0.80068167  0.97026433  0.40932933  1
  O  O74  1  0.86397200  0.35872000  0.63965800  1
  O  O75  1  0.63809333  0.13703567  0.42285067  1
  O  O76  1  0.64128000  0.50525200  0.63965800  1
  O  O77  1  0.49474800  0.13602800  0.63965800  1
  O  O78  1  0.17271500  0.19502600  0.69427500  1
  O  O79  1  0.02231100  0.82728500  0.69427500  1
  O  O80  1  0.02764367  0.19811533  0.90964433  1
  O  O81  1  0.80497400  0.97768900  0.69427500  1
  O  O82  1  0.86444767  0.35924333  0.92494033  1
  O  O83  1  0.13212000  0.49406500  0.85963600  1
  O  O84  1  0.80188467  0.82952833  0.90964433  1
  O  O85  1  0.64075667  0.50520433  0.92494033  1
  O  O86  1  0.49479567  0.13555233  0.92494033  1
  O  O87  1  0.97347767  0.80276033  0.80613533  1
  O  O88  1  0.16560900  0.69524000  0.75618400  1
  O  O89  1  0.82928267  0.02652233  0.80613533  1
  O  O90  1  0.50593500  0.63805500  0.85963600  1
  O  O91  1  0.17047167  0.97235633  0.90964433  1
  O  O92  1  0.36194500  0.86788000  0.85963600  1
  O  O93  1  0.83624933  0.53265167  0.74266267  1
  O  O94  1  0.69640233  0.16375067  0.74266267  1
  O  O95  1  0.52963100  0.83439100  0.75618400  1
  O  O96  1  0.19723967  0.17071733  0.80613533  1
  O  O97  1  0.46734833  0.30359767  0.74266267  1
  O  O98  1  0.53063867  0.69205333  0.97299133  1
  O  O99  1  0.30476000  0.47036900  0.75618400  1
  O  O100  1  0.30794667  0.83858533  0.97299133  1
  O  O101  1  0.16141467  0.46936133  0.97299133  1
