# generated using pymatgen
data_Cs2Li14Tb3O14
_symmetry_space_group_name_H-M   'P 1'
_cell_length_a   7.49365400
_cell_length_b   8.22777400
_cell_length_c   13.30259000
_cell_angle_alpha   90.00000000
_cell_angle_beta   90.00000000
_cell_angle_gamma   90.00000000
_symmetry_Int_Tables_number   1
_chemical_formula_structural   Cs2Li14Tb3O14
_chemical_formula_sum   'Cs4 Li28 Tb6 O28'
_cell_volume   820.18570684
_cell_formula_units_Z   2
loop_
 _symmetry_equiv_pos_site_id
 _symmetry_equiv_pos_as_xyz
  1  'x, y, z'
loop_
 _atom_site_type_symbol
 _atom_site_label
 _atom_site_symmetry_multiplicity
 _atom_site_fract_x
 _atom_site_fract_y
 _atom_site_fract_z
 _atom_site_occupancy
  Cs  Cs0  1  0.76638900  0.50000000  0.00000000  1
  Cs  Cs1  1  0.23361100  0.50000000  0.00000000  1
  Cs  Cs2  1  0.26638900  0.00000000  0.50000000  1
  Cs  Cs3  1  0.73361100  0.00000000  0.50000000  1
  Li  Li4  1  0.27424300  0.84608600  0.86688800  1
  Li  Li5  1  0.22575700  0.34608600  0.63311200  1
  Li  Li6  1  0.72575700  0.15391400  0.86688800  1
  Li  Li7  1  0.77424300  0.65391400  0.63311200  1
  Li  Li8  1  0.27424300  0.15391400  0.86688800  1
  Li  Li9  1  0.50000000  0.15527000  0.00000000  1
  Li  Li10  1  0.50000000  0.84473000  0.00000000  1
  Li  Li11  1  0.00000000  0.64787450  0.76788150  1
  Li  Li12  1  0.50000000  0.85212550  0.73211850  1
  Li  Li13  1  0.50000000  0.14787450  0.73211850  1
  Li  Li14  1  0.00000000  0.35212550  0.76788150  1
  Li  Li15  1  0.72575700  0.84608600  0.86688800  1
  Li  Li16  1  0.22575700  0.65391400  0.63311200  1
  Li  Li17  1  0.77424300  0.34608600  0.63311200  1
  Li  Li18  1  0.77424300  0.34608600  0.36688800  1
  Li  Li19  1  0.72575700  0.84608600  0.13311200  1
  Li  Li20  1  0.22575700  0.65391400  0.36688800  1
  Li  Li21  1  0.27424300  0.15391400  0.13311200  1
  Li  Li22  1  0.77424300  0.65391400  0.36688800  1
  Li  Li23  1  0.00000000  0.65527000  0.50000000  1
  Li  Li24  1  0.00000000  0.34473000  0.50000000  1
  Li  Li25  1  0.50000000  0.14787450  0.26788150  1
  Li  Li26  1  0.00000000  0.35212550  0.23211850  1
  Li  Li27  1  0.00000000  0.64787450  0.23211850  1
  Li  Li28  1  0.50000000  0.85212550  0.26788150  1
  Li  Li29  1  0.22575700  0.34608600  0.36688800  1
  Li  Li30  1  0.72575700  0.15391400  0.13311200  1
  Li  Li31  1  0.27424300  0.84608600  0.13311200  1
  Tb  Tb32  1  0.00000000  0.00000000  0.00000000  1
  Tb  Tb33  1  0.50000000  0.50000000  0.76837400  1
  Tb  Tb34  1  0.00000000  0.00000000  0.73162600  1
  Tb  Tb35  1  0.50000000  0.50000000  0.50000000  1
  Tb  Tb36  1  0.00000000  0.00000000  0.26837400  1
  Tb  Tb37  1  0.50000000  0.50000000  0.23162600  1
  O  O38  1  0.00000000  0.18288950  0.86876150  1
  O  O39  1  0.00000000  0.77839100  0.62958200  1
  O  O40  1  0.00000000  0.22160900  0.62958200  1
  O  O41  1  0.50000000  0.72160900  0.87041800  1
  O  O42  1  0.50000000  0.27839100  0.87041800  1
  O  O43  1  0.29851600  0.00000000  0.75374600  1
  O  O44  1  0.79851600  0.50000000  0.74625400  1
  O  O45  1  0.20148400  0.50000000  0.74625400  1
  O  O46  1  0.70148400  0.00000000  0.75374600  1
  O  O47  1  0.70199800  0.00000000  0.00000000  1
  O  O48  1  0.29800200  0.00000000  0.00000000  1
  O  O49  1  0.00000000  0.81711050  0.86876150  1
  O  O50  1  0.50000000  0.68288950  0.63123850  1
  O  O51  1  0.50000000  0.31711050  0.63123850  1
  O  O52  1  0.50000000  0.68288950  0.36876150  1
  O  O53  1  0.50000000  0.27839100  0.12958200  1
  O  O54  1  0.50000000  0.72160900  0.12958200  1
  O  O55  1  0.00000000  0.22160900  0.37041800  1
  O  O56  1  0.00000000  0.77839100  0.37041800  1
  O  O57  1  0.79851600  0.50000000  0.25374600  1
  O  O58  1  0.29851600  0.00000000  0.24625400  1
  O  O59  1  0.70148400  0.00000000  0.24625400  1
  O  O60  1  0.20148400  0.50000000  0.25374600  1
  O  O61  1  0.20199800  0.50000000  0.50000000  1
  O  O62  1  0.79800200  0.50000000  0.50000000  1
  O  O63  1  0.50000000  0.31711050  0.36876150  1
  O  O64  1  0.00000000  0.18288950  0.13123850  1
  O  O65  1  0.00000000  0.81711050  0.13123850  1
