# generated using pymatgen
data_Mn6O5F7
_symmetry_space_group_name_H-M   'P 1'
_cell_length_a   4.71596583
_cell_length_b   5.75376258
_cell_length_c   15.63529145
_cell_angle_alpha   89.64400311
_cell_angle_beta   89.75950871
_cell_angle_gamma   86.83601829
_symmetry_Int_Tables_number   1
_chemical_formula_structural   Mn6O5F7
_chemical_formula_sum   'Mn12 O10 F14'
_cell_volume   423.59851676
_cell_formula_units_Z   2
loop_
 _symmetry_equiv_pos_site_id
 _symmetry_equiv_pos_as_xyz
  1  'x, y, z'
loop_
 _atom_site_type_symbol
 _atom_site_label
 _atom_site_symmetry_multiplicity
 _atom_site_fract_x
 _atom_site_fract_y
 _atom_site_fract_z
 _atom_site_occupancy
  Mn  Mn0  1  0.00869100  0.84793400  0.41278000  1
  Mn  Mn1  1  0.96027100  0.16620200  0.24353500  1
  Mn  Mn2  1  0.97932800  0.82486900  0.08799700  1
  Mn  Mn3  1  0.96742400  0.83084000  0.74839900  1
  Mn  Mn4  1  0.99262300  0.14646100  0.57808900  1
  Mn  Mn5  1  0.98736100  0.15285200  0.90959000  1
  Mn  Mn6  1  0.51591600  0.68177700  0.59569800  1
  Mn  Mn7  1  0.49451400  0.64929700  0.91931000  1
  Mn  Mn8  1  0.49449800  0.63897300  0.25511700  1
  Mn  Mn9  1  0.50408900  0.36293900  0.08716700  1
  Mn  Mn10  1  0.51703300  0.34980100  0.41412600  1
  Mn  Mn11  1  0.51112300  0.35885500  0.75212200  1
  O  O12  1  0.79333900  0.89150200  0.63907900  1
  O  O13  1  0.76010300  0.11791400  0.14004500  1
  O  O14  1  0.78425500  0.10997400  0.46486600  1
  O  O15  1  0.76644200  0.11167700  0.80182300  1
  O  O16  1  0.70585800  0.60424500  0.14758200  1
  O  O17  1  0.71638400  0.38275700  0.30700500  1
  O  O18  1  0.71431200  0.60307100  0.81372500  1
  O  O19  1  0.28127400  0.61487800  0.02656000  1
  O  O20  1  0.28073300  0.61673000  0.36321700  1
  O  O21  1  0.27972900  0.62031100  0.69681500  1
  F  F22  1  0.76822900  0.88009700  0.30788400  1
  F  F23  1  0.76266200  0.88294400  0.97051700  1
  F  F24  1  0.74810400  0.61993400  0.48370400  1
  F  F25  1  0.75600300  0.39191800  0.64073300  1
  F  F26  1  0.74501100  0.38779800  0.97571200  1
  F  F27  1  0.23786100  0.38541400  0.19217200  1
  F  F28  1  0.29259600  0.37466800  0.52505400  1
  F  F29  1  0.26792700  0.38285300  0.86635600  1
  F  F30  1  0.22859700  0.88434300  0.20047600  1
  F  F31  1  0.25002700  0.88076600  0.51732900  1
  F  F32  1  0.21541200  0.12145900  0.34662800  1
  F  F33  1  0.23716600  0.12024000  0.02412500  1
  F  F34  1  0.21795200  0.86998800  0.85536600  1
  F  F35  1  0.25715500  0.13371800  0.68929400  1
