# generated using pymatgen
data_Li2VCr2O6
_symmetry_space_group_name_H-M   'P 1'
_cell_length_a   12.94600400
_cell_length_b   8.95753200
_cell_length_c   6.00303628
_cell_angle_alpha   90.00000000
_cell_angle_beta   104.52774105
_cell_angle_gamma   90.00000000
_symmetry_Int_Tables_number   1
_chemical_formula_structural   Li2VCr2O6
_chemical_formula_sum   'Li12 V6 Cr12 O36'
_cell_volume   673.87947682
_cell_formula_units_Z   6
loop_
 _symmetry_equiv_pos_site_id
 _symmetry_equiv_pos_as_xyz
  1  'x, y, z'
loop_
 _atom_site_type_symbol
 _atom_site_label
 _atom_site_symmetry_multiplicity
 _atom_site_fract_x
 _atom_site_fract_y
 _atom_site_fract_z
 _atom_site_occupancy
  Li  Li0  1  0.16694450  0.16607950  0.32694300  1
  Li  Li1  1  0.16694450  0.83392050  0.32694300  1
  Li  Li2  1  0.83305550  0.83392050  0.67305700  1
  Li  Li3  1  0.83305550  0.16607950  0.67305700  1
  Li  Li4  1  0.50000000  0.16924800  0.00000000  1
  Li  Li5  1  0.50000000  0.83075200  0.00000000  1
  Li  Li6  1  0.66694450  0.66607950  0.32694300  1
  Li  Li7  1  0.66694450  0.33392050  0.32694300  1
  Li  Li8  1  0.33305550  0.33392050  0.67305700  1
  Li  Li9  1  0.33305550  0.66607950  0.67305700  1
  Li  Li10  1  0.00000000  0.66924800  0.00000000  1
  Li  Li11  1  0.00000000  0.33075200  0.00000000  1
  V  V12  1  0.50000000  0.16399100  0.50000000  1
  V  V13  1  0.00000000  0.00000000  0.50000000  1
  V  V14  1  0.50000000  0.83600900  0.50000000  1
  V  V15  1  0.00000000  0.66399100  0.50000000  1
  V  V16  1  0.50000000  0.50000000  0.50000000  1
  V  V17  1  0.00000000  0.33600900  0.50000000  1
  Cr  Cr18  1  0.16638300  0.16472500  0.83598300  1
  Cr  Cr19  1  0.66478300  0.00000000  0.83624300  1
  Cr  Cr20  1  0.16638300  0.83527500  0.83598300  1
  Cr  Cr21  1  0.83361700  0.83527500  0.16401700  1
  Cr  Cr22  1  0.83361700  0.16472500  0.16401700  1
  Cr  Cr23  1  0.33521700  0.00000000  0.16375700  1
  Cr  Cr24  1  0.66638300  0.66472500  0.83598300  1
  Cr  Cr25  1  0.16478300  0.50000000  0.83624300  1
  Cr  Cr26  1  0.66638300  0.33527500  0.83598300  1
  Cr  Cr27  1  0.33361700  0.33527500  0.16401700  1
  Cr  Cr28  1  0.33361700  0.66472500  0.16401700  1
  Cr  Cr29  1  0.83521700  0.50000000  0.16375700  1
  O  O30  1  0.50475400  0.00000000  0.72930500  1
  O  O31  1  0.67266500  0.82835600  0.05965000  1
  O  O32  1  0.67266500  0.17164400  0.05965000  1
  O  O33  1  0.49524600  0.00000000  0.27069500  1
  O  O34  1  0.65406650  0.82928150  0.59785500  1
  O  O35  1  0.65406650  0.17071850  0.59785500  1
  O  O36  1  0.32733500  0.17164400  0.94035000  1
  O  O37  1  0.82174200  0.00000000  0.93053500  1
  O  O38  1  0.32733500  0.82835600  0.94035000  1
  O  O39  1  0.34593350  0.17071850  0.40214500  1
  O  O40  1  0.84980500  0.00000000  0.41238500  1
  O  O41  1  0.34593350  0.82928150  0.40214500  1
  O  O42  1  0.50314950  0.32852150  0.72212500  1
  O  O43  1  0.50314950  0.67147850  0.72212500  1
  O  O44  1  0.17825800  0.00000000  0.06946500  1
  O  O45  1  0.49685050  0.32852150  0.27787500  1
  O  O46  1  0.49685050  0.67147850  0.27787500  1
  O  O47  1  0.15019500  0.00000000  0.58761500  1
  O  O48  1  0.00475400  0.50000000  0.72930500  1
  O  O49  1  0.17266500  0.32835600  0.05965000  1
  O  O50  1  0.17266500  0.67164400  0.05965000  1
  O  O51  1  0.99524600  0.50000000  0.27069500  1
  O  O52  1  0.15406650  0.32928150  0.59785500  1
  O  O53  1  0.15406650  0.67071850  0.59785500  1
  O  O54  1  0.82733500  0.67164400  0.94035000  1
  O  O55  1  0.32174200  0.50000000  0.93053500  1
  O  O56  1  0.82733500  0.32835600  0.94035000  1
  O  O57  1  0.84593350  0.67071850  0.40214500  1
  O  O58  1  0.34980500  0.50000000  0.41238500  1
  O  O59  1  0.84593350  0.32928150  0.40214500  1
  O  O60  1  0.00314950  0.82852150  0.72212500  1
  O  O61  1  0.00314950  0.17147850  0.72212500  1
  O  O62  1  0.67825800  0.50000000  0.06946500  1
  O  O63  1  0.99685050  0.82852150  0.27787500  1
  O  O64  1  0.99685050  0.17147850  0.27787500  1
  O  O65  1  0.65019500  0.50000000  0.58761500  1
