# generated using pymatgen
data_Ba2LiFe2N3
_symmetry_space_group_name_H-M   'P 1'
_cell_length_a   6.86066000
_cell_length_b   11.75731600
_cell_length_c   6.79779545
_cell_angle_alpha   90.00000000
_cell_angle_beta   91.67494732
_cell_angle_gamma   90.00000000
_symmetry_Int_Tables_number   1
_chemical_formula_structural   Ba2LiFe2N3
_chemical_formula_sum   'Ba8 Li4 Fe8 N12'
_cell_volume   548.09593660
_cell_formula_units_Z   4
loop_
 _symmetry_equiv_pos_site_id
 _symmetry_equiv_pos_as_xyz
  1  'x, y, z'
loop_
 _atom_site_type_symbol
 _atom_site_label
 _atom_site_symmetry_multiplicity
 _atom_site_fract_x
 _atom_site_fract_y
 _atom_site_fract_z
 _atom_site_occupancy
  Ba  Ba0  1  0.24658000  0.92729800  0.89935400  1
  Ba  Ba1  1  0.75342000  0.92729800  0.60064600  1
  Ba  Ba2  1  0.75342000  0.07270200  0.10064600  1
  Ba  Ba3  1  0.24658000  0.07270200  0.39935400  1
  Ba  Ba4  1  0.74658000  0.42729800  0.89935400  1
  Ba  Ba5  1  0.25342000  0.42729800  0.60064600  1
  Ba  Ba6  1  0.25342000  0.57270200  0.10064600  1
  Ba  Ba7  1  0.74658000  0.57270200  0.39935400  1
  Li  Li8  1  0.50000000  0.69299800  0.75000000  1
  Li  Li9  1  0.50000000  0.30700200  0.25000000  1
  Li  Li10  1  0.00000000  0.19299800  0.75000000  1
  Li  Li11  1  0.00000000  0.80700200  0.25000000  1
  Fe  Fe12  1  0.63564050  0.79644450  0.10125200  1
  Fe  Fe13  1  0.36435950  0.20355550  0.89874800  1
  Fe  Fe14  1  0.36435950  0.79644450  0.39874800  1
  Fe  Fe15  1  0.63564050  0.20355550  0.60125200  1
  Fe  Fe16  1  0.13564050  0.29644450  0.10125200  1
  Fe  Fe17  1  0.86435950  0.70355550  0.89874800  1
  Fe  Fe18  1  0.86435950  0.29644450  0.39874800  1
  Fe  Fe19  1  0.13564050  0.70355550  0.60125200  1
  N  N20  1  0.50000000  0.10329300  0.75000000  1
  N  N21  1  0.50000000  0.89670700  0.25000000  1
  N  N22  1  0.64041300  0.35244000  0.50449900  1
  N  N23  1  0.64041300  0.64756000  0.00449900  1
  N  N24  1  0.35958700  0.64756000  0.49550100  1
  N  N25  1  0.35958700  0.35244000  0.99550100  1
  N  N26  1  0.00000000  0.60329300  0.75000000  1
  N  N27  1  0.00000000  0.39670700  0.25000000  1
  N  N28  1  0.14041300  0.85244000  0.50449900  1
  N  N29  1  0.14041300  0.14756000  0.00449900  1
  N  N30  1  0.85958700  0.14756000  0.49550100  1
  N  N31  1  0.85958700  0.85244000  0.99550100  1
