# generated using pymatgen
data_Li2Mn3(BO3)3
_symmetry_space_group_name_H-M   'P 1'
_cell_length_a   28.68248200
_cell_length_b   6.34410200
_cell_length_c   8.30196327
_cell_angle_alpha   90.00000000
_cell_angle_beta   90.39598210
_cell_angle_gamma   90.00000000
_symmetry_Int_Tables_number   1
_chemical_formula_structural   Li2Mn3(BO3)3
_chemical_formula_sum   'Li16 Mn24 B24 O72'
_cell_volume   1510.62727630
_cell_formula_units_Z   8
loop_
 _symmetry_equiv_pos_site_id
 _symmetry_equiv_pos_as_xyz
  1  'x, y, z'
loop_
 _atom_site_type_symbol
 _atom_site_label
 _atom_site_symmetry_multiplicity
 _atom_site_fract_x
 _atom_site_fract_y
 _atom_site_fract_z
 _atom_site_occupancy
  Li  Li0  1  0.75705100  0.50000000  0.28664100  1
  Li  Li1  1  0.57192700  0.50000000  0.33656000  1
  Li  Li2  1  0.92713500  0.00000000  0.36814600  1
  Li  Li3  1  0.92686200  0.50000000  0.36920400  1
  Li  Li4  1  0.50690600  0.00000000  0.78798500  1
  Li  Li5  1  0.82171400  0.00000000  0.83886900  1
  Li  Li6  1  0.67676600  0.50000000  0.87059000  1
  Li  Li7  1  0.67766200  0.00000000  0.86910400  1
  Li  Li8  1  0.25705100  0.00000000  0.28664100  1
  Li  Li9  1  0.07192700  0.00000000  0.33656000  1
  Li  Li10  1  0.42713500  0.50000000  0.36814600  1
  Li  Li11  1  0.42686200  0.00000000  0.36920400  1
  Li  Li12  1  0.00690600  0.50000000  0.78798500  1
  Li  Li13  1  0.32171400  0.50000000  0.83886900  1
  Li  Li14  1  0.17676600  0.00000000  0.87059000  1
  Li  Li15  1  0.17766200  0.50000000  0.86910400  1
  Mn  Mn16  1  0.50148250  0.74557350  0.13015600  1
  Mn  Mn17  1  0.50148250  0.25442650  0.13015600  1
  Mn  Mn18  1  0.84304650  0.24925450  0.16977100  1
  Mn  Mn19  1  0.84304650  0.75074550  0.16977100  1
  Mn  Mn20  1  0.66190600  0.75045800  0.19826500  1
  Mn  Mn21  1  0.66190600  0.24954200  0.19826500  1
  Mn  Mn22  1  0.75102800  0.75182600  0.62751400  1
  Mn  Mn23  1  0.75102800  0.24817400  0.62751400  1
  Mn  Mn24  1  0.59343300  0.74989300  0.66790400  1
  Mn  Mn25  1  0.59343300  0.25010700  0.66790400  1
  Mn  Mn26  1  0.91247450  0.24781450  0.69791500  1
  Mn  Mn27  1  0.91247450  0.75218550  0.69791500  1
  Mn  Mn28  1  0.00148250  0.24557350  0.13015600  1
  Mn  Mn29  1  0.00148250  0.75442650  0.13015600  1
  Mn  Mn30  1  0.34304650  0.74925450  0.16977100  1
  Mn  Mn31  1  0.34304650  0.25074550  0.16977100  1
  Mn  Mn32  1  0.16190600  0.25045800  0.19826500  1
  Mn  Mn33  1  0.16190600  0.74954200  0.19826500  1
  Mn  Mn34  1  0.25102800  0.25182600  0.62751400  1
  Mn  Mn35  1  0.25102800  0.74817400  0.62751400  1
  Mn  Mn36  1  0.09343300  0.24989300  0.66790400  1
  Mn  Mn37  1  0.09343300  0.75010700  0.66790400  1
  Mn  Mn38  1  0.41247450  0.74781450  0.69791500  1
  Mn  Mn39  1  0.41247450  0.25218550  0.69791500  1
  B  B40  1  0.75061350  0.24851850  0.99778000  1
  B  B41  1  0.75061350  0.75148150  0.99778000  1
  B  B42  1  0.58698800  0.00000000  0.99499400  1
  B  B43  1  0.58663000  0.50000000  0.00262400  1
  B  B44  1  0.92078700  0.50000000  0.00566600  1
  B  B45  1  0.91764700  0.00000000  0.00002000  1
  B  B46  1  0.50110550  0.74724350  0.49710500  1
  B  B47  1  0.50110550  0.25275650  0.49710500  1
  B  B48  1  0.66931100  0.50000000  0.50037800  1
  B  B49  1  0.66802600  0.00000000  0.50509400  1
  B  B50  1  0.83664900  0.00000000  0.50178400  1
  B  B51  1  0.83722400  0.50000000  0.49853000  1
  B  B52  1  0.25061350  0.74851850  0.99778000  1
  B  B53  1  0.25061350  0.25148150  0.99778000  1
  B  B54  1  0.08698800  0.50000000  0.99499400  1
  B  B55  1  0.08663000  0.00000000  0.00262400  1
  B  B56  1  0.42078700  0.00000000  0.00566600  1
  B  B57  1  0.41764700  0.50000000  0.00002000  1
  B  B58  1  0.00110550  0.24724350  0.49710500  1
  B  B59  1  0.00110550  0.75275650  0.49710500  1
  B  B60  1  0.16931100  0.00000000  0.50037800  1
  B  B61  1  0.16802600  0.50000000  0.50509400  1
  B  B62  1  0.33664900  0.50000000  0.50178400  1
  B  B63  1  0.33722400  0.00000000  0.49853000  1
  O  O64  1  0.53933100  0.50000000  0.03371800  1
  O  O65  1  0.53881500  0.00000000  0.01328600  1
  O  O66  1  0.86908200  0.00000000  0.01827500  1
  O  O67  1  0.87365300  0.50000000  0.02678600  1
  O  O68  1  0.95108000  0.50000000  0.13960400  1
  O  O69  1  0.94684300  0.00000000  0.13415800  1
  O  O70  1  0.61731700  0.00000000  0.12471200  1
  O  O71  1  0.61667500  0.50000000  0.13587500  1
  O  O72  1  0.77288600  0.26507500  0.14445200  1
  O  O73  1  0.77288600  0.73492500  0.14445200  1
  O  O74  1  0.68604500  0.00000000  0.34981600  1
  O  O75  1  0.68905800  0.50000000  0.34655400  1
  O  O76  1  0.85586100  0.00000000  0.34887300  1
  O  O77  1  0.85584500  0.50000000  0.34405900  1
  O  O78  1  0.52672250  0.72795750  0.35763500  1
  O  O79  1  0.52672250  0.27204250  0.35763500  1
  O  O80  1  0.95233550  0.24883850  0.48806800  1
  O  O81  1  0.95233550  0.75116150  0.48806800  1
  O  O82  1  0.78895400  0.50000000  0.51484700  1
  O  O83  1  0.78943500  0.00000000  0.52912500  1
  O  O84  1  0.62047500  0.00000000  0.52680100  1
  O  O85  1  0.62105600  0.50000000  0.51609800  1
  O  O86  1  0.69857100  0.00000000  0.63705700  1
  O  O87  1  0.69842000  0.50000000  0.63549300  1
  O  O88  1  0.86579800  0.00000000  0.63774700  1
  O  O89  1  0.86744500  0.50000000  0.62888900  1
  O  O90  1  0.52334500  0.76464000  0.64423500  1
  O  O91  1  0.52334500  0.23536000  0.64423500  1
  O  O92  1  0.93997700  0.50000000  0.85035300  1
  O  O93  1  0.93628100  0.00000000  0.84616100  1
  O  O94  1  0.60559600  0.00000000  0.84120600  1
  O  O95  1  0.60459200  0.50000000  0.84786200  1
  O  O96  1  0.77631350  0.23159950  0.85794200  1
  O  O97  1  0.77631350  0.76840050  0.85794200  1
  O  O98  1  0.70237150  0.74369350  0.98967400  1
  O  O99  1  0.70237150  0.25630650  0.98967400  1
  O  O100  1  0.03933100  0.00000000  0.03371800  1
  O  O101  1  0.03881500  0.50000000  0.01328600  1
  O  O102  1  0.36908200  0.50000000  0.01827500  1
  O  O103  1  0.37365300  0.00000000  0.02678600  1
  O  O104  1  0.45108000  0.00000000  0.13960400  1
  O  O105  1  0.44684300  0.50000000  0.13415800  1
  O  O106  1  0.11731700  0.50000000  0.12471200  1
  O  O107  1  0.11667500  0.00000000  0.13587500  1
  O  O108  1  0.27288600  0.76507500  0.14445200  1
  O  O109  1  0.27288600  0.23492500  0.14445200  1
  O  O110  1  0.18604500  0.50000000  0.34981600  1
  O  O111  1  0.18905800  0.00000000  0.34655400  1
  O  O112  1  0.35586100  0.50000000  0.34887300  1
  O  O113  1  0.35584500  0.00000000  0.34405900  1
  O  O114  1  0.02672250  0.22795750  0.35763500  1
  O  O115  1  0.02672250  0.77204250  0.35763500  1
  O  O116  1  0.45233550  0.74883850  0.48806800  1
  O  O117  1  0.45233550  0.25116150  0.48806800  1
  O  O118  1  0.28895400  0.00000000  0.51484700  1
  O  O119  1  0.28943500  0.50000000  0.52912500  1
  O  O120  1  0.12047500  0.50000000  0.52680100  1
  O  O121  1  0.12105600  0.00000000  0.51609800  1
  O  O122  1  0.19857100  0.50000000  0.63705700  1
  O  O123  1  0.19842000  0.00000000  0.63549300  1
  O  O124  1  0.36579800  0.50000000  0.63774700  1
  O  O125  1  0.36744500  0.00000000  0.62888900  1
  O  O126  1  0.02334500  0.26464000  0.64423500  1
  O  O127  1  0.02334500  0.73536000  0.64423500  1
  O  O128  1  0.43997700  0.00000000  0.85035300  1
  O  O129  1  0.43628100  0.50000000  0.84616100  1
  O  O130  1  0.10559600  0.50000000  0.84120600  1
  O  O131  1  0.10459200  0.00000000  0.84786200  1
  O  O132  1  0.27631350  0.73159950  0.85794200  1
  O  O133  1  0.27631350  0.26840050  0.85794200  1
  O  O134  1  0.20237150  0.24369350  0.98967400  1
  O  O135  1  0.20237150  0.75630650  0.98967400  1
