# generated using pymatgen
data_Na3NiO2
_symmetry_space_group_name_H-M   'P 1'
_cell_length_a   5.31300800
_cell_length_b   6.08243600
_cell_length_c   10.51879600
_cell_angle_alpha   90.00000000
_cell_angle_beta   90.00000000
_cell_angle_gamma   90.00000000
_symmetry_Int_Tables_number   1
_chemical_formula_structural   Na3NiO2
_chemical_formula_sum   'Na12 Ni4 O8'
_cell_volume   339.92573896
_cell_formula_units_Z   4
loop_
 _symmetry_equiv_pos_site_id
 _symmetry_equiv_pos_as_xyz
  1  'x, y, z'
loop_
 _atom_site_type_symbol
 _atom_site_label
 _atom_site_symmetry_multiplicity
 _atom_site_fract_x
 _atom_site_fract_y
 _atom_site_fract_z
 _atom_site_occupancy
  Na  Na0  1  0.50000000  0.25000000  0.26241500  1
  Na  Na1  1  0.50000000  0.25000000  0.00000000  1
  Na  Na2  1  0.50000000  0.75000000  0.00000000  1
  Na  Na3  1  0.50000000  0.75000000  0.26241500  1
  Na  Na4  1  0.00000000  0.25000000  0.23758500  1
  Na  Na5  1  0.00000000  0.75000000  0.23758500  1
  Na  Na6  1  0.00000000  0.75000000  0.76241500  1
  Na  Na7  1  0.00000000  0.75000000  0.50000000  1
  Na  Na8  1  0.00000000  0.25000000  0.50000000  1
  Na  Na9  1  0.00000000  0.25000000  0.76241500  1
  Na  Na10  1  0.50000000  0.75000000  0.73758500  1
  Na  Na11  1  0.50000000  0.25000000  0.73758500  1
  Ni  Ni12  1  0.00000000  0.00000000  0.00000000  1
  Ni  Ni13  1  0.00000000  0.50000000  0.00000000  1
  Ni  Ni14  1  0.50000000  0.50000000  0.50000000  1
  Ni  Ni15  1  0.50000000  0.00000000  0.50000000  1
  O  O16  1  0.74894700  0.50000000  0.12530300  1
  O  O17  1  0.25105300  0.00000000  0.12530300  1
  O  O18  1  0.24894700  0.50000000  0.37469700  1
  O  O19  1  0.75105300  0.00000000  0.37469700  1
  O  O20  1  0.24894700  0.00000000  0.62530300  1
  O  O21  1  0.75105300  0.50000000  0.62530300  1
  O  O22  1  0.74894700  0.00000000  0.87469700  1
  O  O23  1  0.25105300  0.50000000  0.87469700  1
