# generated using pymatgen
data_VFe2(PO4)3
_symmetry_space_group_name_H-M   'P 1'
_cell_length_a   8.65485387
_cell_length_b   8.65485387
_cell_length_c   20.40350881
_cell_angle_alpha   90.00000000
_cell_angle_beta   90.00000000
_cell_angle_gamma   120.00000000
_symmetry_Int_Tables_number   1
_chemical_formula_structural   VFe2(PO4)3
_chemical_formula_sum   'V6 Fe12 P18 O72'
_cell_volume   1323.59455049
_cell_formula_units_Z   6
loop_
 _symmetry_equiv_pos_site_id
 _symmetry_equiv_pos_as_xyz
  1  'x, y, z'
loop_
 _atom_site_type_symbol
 _atom_site_label
 _atom_site_symmetry_multiplicity
 _atom_site_fract_x
 _atom_site_fract_y
 _atom_site_fract_z
 _atom_site_occupancy
  V  V0  1  0.00000000  0.00000000  0.00000000  1
  V  V1  1  0.33333333  0.66666667  0.16666667  1
  V  V2  1  0.66666667  0.33333333  0.33333333  1
  V  V3  1  0.00000000  0.00000000  0.50000000  1
  V  V4  1  0.33333333  0.66666667  0.66666667  1
  V  V5  1  0.66666667  0.33333333  0.83333333  1
  Fe  Fe6  1  0.33333333  0.66666667  0.31302267  1
  Fe  Fe7  1  0.33333333  0.66666667  0.81302267  1
  Fe  Fe8  1  0.33333333  0.66666667  0.52031067  1
  Fe  Fe9  1  0.33333333  0.66666667  0.02031067  1
  Fe  Fe10  1  0.00000000  0.00000000  0.64635600  1
  Fe  Fe11  1  0.00000000  0.00000000  0.14635600  1
  Fe  Fe12  1  1.00000000  0.00000000  0.85364400  1
  Fe  Fe13  1  0.00000000  0.00000000  0.35364400  1
  Fe  Fe14  1  0.66666667  0.33333333  0.97968933  1
  Fe  Fe15  1  0.66666667  0.33333333  0.47968933  1
  Fe  Fe16  1  0.66666667  0.33333333  0.18697733  1
  Fe  Fe17  1  0.66666667  0.33333333  0.68697733  1
  P  P18  1  0.70274300  0.70274300  0.25000000  1
  P  P19  1  0.29725700  0.00000000  0.25000000  1
  P  P20  1  0.00000000  0.29725700  0.25000000  1
  P  P21  1  0.66666667  0.03607633  0.08333333  1
  P  P22  1  0.36940967  0.33333333  0.08333333  1
  P  P23  1  0.96392367  0.63059033  0.08333333  1
  P  P24  1  0.36940967  0.03607633  0.58333333  1
  P  P25  1  0.96392367  0.33333333  0.58333333  1
  P  P26  1  0.66666667  0.63059033  0.58333333  1
  P  P27  1  0.33333333  0.36940967  0.41666667  1
  P  P28  1  0.03607633  0.66666667  0.41666667  1
  P  P29  1  0.63059033  0.96392367  0.41666667  1
  P  P30  1  0.03607633  0.36940967  0.91666667  1
  P  P31  1  0.63059033  0.66666667  0.91666667  1
  P  P32  1  0.33333333  0.96392367  0.91666667  1
  P  P33  1  0.00000000  0.70274300  0.75000000  1
  P  P34  1  0.70274300  0.00000000  0.75000000  1
  P  P35  1  0.29725700  0.29725700  0.75000000  1
  O  O36  1  0.52582400  0.65393300  0.97825800  1
  O  O37  1  0.34606700  0.87189100  0.97825800  1
  O  O38  1  0.12810900  0.47417600  0.97825800  1
  O  O39  1  0.67648967  0.51102733  0.26108133  1
  O  O40  1  0.80750933  0.79477567  0.18840867  1
  O  O41  1  0.51102733  0.67648967  0.23891867  1
  O  O42  1  0.48897267  0.16546233  0.26108133  1
  O  O43  1  0.32351033  0.83453767  0.23891867  1
  O  O44  1  0.67940033  0.14084267  0.14492467  1
  O  O45  1  0.16546233  0.48897267  0.23891867  1
  O  O46  1  0.83212900  0.00982300  0.07225200  1
  O  O47  1  0.46144233  0.32059967  0.14492467  1
  O  O48  1  0.20522433  0.01273367  0.18840867  1
  O  O49  1  0.83453767  0.32351033  0.26108133  1
  O  O50  1  0.50120433  0.84436067  0.09441467  1
  O  O51  1  0.98726633  0.19249067  0.18840867  1
  O  O52  1  0.34315633  0.49879567  0.09441467  1
  O  O53  1  0.17769400  0.16787100  0.07225200  1
  O  O54  1  0.15563933  0.65684367  0.09441467  1
  O  O55  1  0.85915733  0.53855767  0.14492467  1
  O  O56  1  0.99017700  0.82230600  0.07225200  1
  O  O57  1  0.53855767  0.85915733  0.35507533  1
  O  O58  1  0.32059967  0.46144233  0.35507533  1
  O  O59  1  0.14084267  0.67940033  0.35507533  1
  O  O60  1  0.19249067  0.98726633  0.31159133  1
  O  O61  1  0.01273367  0.20522433  0.31159133  1
  O  O62  1  0.79477567  0.80750933  0.31159133  1
  O  O63  1  0.34315633  0.84436067  0.59441467  1
  O  O64  1  0.47417600  0.12810900  0.52174200  1
  O  O65  1  0.17769400  0.00982300  0.57225200  1
  O  O66  1  0.15563933  0.49879567  0.59441467  1
  O  O67  1  0.99017700  0.16787100  0.57225200  1
  O  O68  1  0.34606700  0.47417600  0.47825800  1
  O  O69  1  0.83212900  0.82230600  0.57225200  1
  O  O70  1  0.49879567  0.34315633  0.40558533  1
  O  O71  1  0.12810900  0.65393300  0.47825800  1
  O  O72  1  0.87189100  0.34606700  0.52174200  1
  O  O73  1  0.50120433  0.65684367  0.59441467  1
  O  O74  1  0.16787100  0.17769400  0.42774800  1
  O  O75  1  0.65393300  0.52582400  0.52174200  1
  O  O76  1  0.00982300  0.83212900  0.42774800  1
  O  O77  1  0.84436067  0.50120433  0.40558533  1
  O  O78  1  0.82230600  0.99017700  0.42774800  1
  O  O79  1  0.52582400  0.87189100  0.47825800  1
  O  O80  1  0.65684367  0.15563933  0.40558533  1
  O  O81  1  0.20522433  0.19249067  0.68840867  1
  O  O82  1  0.98726633  0.79477567  0.68840867  1
  O  O83  1  0.80750933  0.01273367  0.68840867  1
  O  O84  1  0.85915733  0.32059967  0.64492467  1
  O  O85  1  0.67940033  0.53855767  0.64492467  1
  O  O86  1  0.46144233  0.14084267  0.64492467  1
  O  O87  1  0.00982300  0.17769400  0.92774800  1
  O  O88  1  0.14084267  0.46144233  0.85507533  1
  O  O89  1  0.84436067  0.34315633  0.90558533  1
  O  O90  1  0.82230600  0.83212900  0.92774800  1
  O  O91  1  0.65684367  0.50120433  0.90558533  1
  O  O92  1  0.01273367  0.80750933  0.81159133  1
  O  O93  1  0.49879567  0.15563933  0.90558533  1
  O  O94  1  0.16546233  0.67648967  0.73891867  1
  O  O95  1  0.79477567  0.98726633  0.81159133  1
  O  O96  1  0.53855767  0.67940033  0.85507533  1
  O  O97  1  0.16787100  0.99017700  0.92774800  1
  O  O98  1  0.83453767  0.51102733  0.76108133  1
  O  O99  1  0.32059967  0.85915733  0.85507533  1
  O  O100  1  0.67648967  0.16546233  0.76108133  1
  O  O101  1  0.51102733  0.83453767  0.73891867  1
  O  O102  1  0.48897267  0.32351033  0.76108133  1
  O  O103  1  0.19249067  0.20522433  0.81159133  1
  O  O104  1  0.32351033  0.48897267  0.73891867  1
  O  O105  1  0.87189100  0.52582400  0.02174200  1
  O  O106  1  0.65393300  0.12810900  0.02174200  1
  O  O107  1  0.47417600  0.34606700  0.02174200  1
