# generated using pymatgen
data_Li5Mn6(BO3)6
_symmetry_space_group_name_H-M   'P 1'
_cell_length_a   16.53501200
_cell_length_b   6.36852200
_cell_length_c   14.35294023
_cell_angle_alpha   90.00000000
_cell_angle_beta   90.49895231
_cell_angle_gamma   90.00000000
_symmetry_Int_Tables_number   1
_chemical_formula_structural   Li5Mn6(BO3)6
_chemical_formula_sum   'Li20 Mn24 B24 O72'
_cell_volume   1511.35879078
_cell_formula_units_Z   4
loop_
 _symmetry_equiv_pos_site_id
 _symmetry_equiv_pos_as_xyz
  1  'x, y, z'
loop_
 _atom_site_type_symbol
 _atom_site_label
 _atom_site_symmetry_multiplicity
 _atom_site_fract_x
 _atom_site_fract_y
 _atom_site_fract_z
 _atom_site_occupancy
  Li  Li0  1  0.89496200  0.00000000  0.00798300  1
  Li  Li1  1  0.89510300  0.50000000  0.00903900  1
  Li  Li2  1  0.92116000  0.50000000  0.64034100  1
  Li  Li3  1  0.93420900  0.50000000  0.35017400  1
  Li  Li4  1  0.93435800  0.00000000  0.35063600  1
  Li  Li5  1  0.64469600  0.50000000  0.50782600  1
  Li  Li6  1  0.64537600  0.00000000  0.50915400  1
  Li  Li7  1  0.67112400  0.50000000  0.14033200  1
  Li  Li8  1  0.68405400  0.50000000  0.85148600  1
  Li  Li9  1  0.68451400  0.00000000  0.84908900  1
  Li  Li10  1  0.39496200  0.50000000  0.00798300  1
  Li  Li11  1  0.39510300  0.00000000  0.00903900  1
  Li  Li12  1  0.42116000  0.00000000  0.64034100  1
  Li  Li13  1  0.43420900  0.00000000  0.35017400  1
  Li  Li14  1  0.43435800  0.50000000  0.35063600  1
  Li  Li15  1  0.14469600  0.00000000  0.50782600  1
  Li  Li16  1  0.14537600  0.50000000  0.50915400  1
  Li  Li17  1  0.17112400  0.00000000  0.14033200  1
  Li  Li18  1  0.18405400  0.00000000  0.85148600  1
  Li  Li19  1  0.18451400  0.50000000  0.84908900  1
  Mn  Mn20  1  0.81871900  0.75209900  0.49887000  1
  Mn  Mn21  1  0.81871900  0.24790100  0.49887000  1
  Mn  Mn22  1  0.83304850  0.75323550  0.18490300  1
  Mn  Mn23  1  0.83304850  0.24676450  0.18490300  1
  Mn  Mn24  1  0.84773150  0.24721450  0.81601100  1
  Mn  Mn25  1  0.84773150  0.75278550  0.81601100  1
  Mn  Mn26  1  0.56879850  0.24775150  0.99873600  1
  Mn  Mn27  1  0.56879850  0.75224850  0.99873600  1
  Mn  Mn28  1  0.58294050  0.25333350  0.68478100  1
  Mn  Mn29  1  0.58294050  0.74666650  0.68478100  1
  Mn  Mn30  1  0.59781250  0.24789450  0.31599000  1
  Mn  Mn31  1  0.59781250  0.75210550  0.31599000  1
  Mn  Mn32  1  0.31871900  0.25209900  0.49887000  1
  Mn  Mn33  1  0.31871900  0.74790100  0.49887000  1
  Mn  Mn34  1  0.33304850  0.25323550  0.18490300  1
  Mn  Mn35  1  0.33304850  0.74676450  0.18490300  1
  Mn  Mn36  1  0.34773150  0.74721450  0.81601100  1
  Mn  Mn37  1  0.34773150  0.25278550  0.81601100  1
  Mn  Mn38  1  0.06879850  0.74775150  0.99873600  1
  Mn  Mn39  1  0.06879850  0.25224850  0.99873600  1
  Mn  Mn40  1  0.08294050  0.75333350  0.68478100  1
  Mn  Mn41  1  0.08294050  0.24666650  0.68478100  1
  Mn  Mn42  1  0.09781250  0.74789450  0.31599000  1
  Mn  Mn43  1  0.09781250  0.25210550  0.31599000  1
  B  B44  1  0.75089150  0.74559950  0.99773700  1
  B  B45  1  0.75089150  0.25440050  0.99773700  1
  B  B46  1  0.74940000  0.50000000  0.66660600  1
  B  B47  1  0.74635000  0.00000000  0.66837800  1
  B  B48  1  0.74988900  0.50000000  0.33425300  1
  B  B49  1  0.75229100  0.00000000  0.33587500  1
  B  B50  1  0.50090100  0.24579300  0.49767000  1
  B  B51  1  0.50090100  0.75420700  0.49767000  1
  B  B52  1  0.50236600  0.50000000  0.83596100  1
  B  B53  1  0.99969900  0.50000000  0.83433200  1
  B  B54  1  0.99910300  0.00000000  0.16671900  1
  B  B55  1  0.99670100  0.50000000  0.16826700  1
  B  B56  1  0.25089150  0.24559950  0.99773700  1
  B  B57  1  0.25089150  0.75440050  0.99773700  1
  B  B58  1  0.24940000  0.00000000  0.66660600  1
  B  B59  1  0.24635000  0.50000000  0.66837800  1
  B  B60  1  0.24988900  0.00000000  0.33425300  1
  B  B61  1  0.25229100  0.50000000  0.33587500  1
  B  B62  1  0.00090100  0.74579300  0.49767000  1
  B  B63  1  0.00090100  0.25420700  0.49767000  1
  B  B64  1  0.00236600  0.00000000  0.83596100  1
  B  B65  1  0.49969900  0.00000000  0.83433200  1
  B  B66  1  0.49910300  0.50000000  0.16671900  1
  B  B67  1  0.49670100  0.00000000  0.16826700  1
  O  O68  1  0.75525600  0.00000000  0.57231300  1
  O  O69  1  0.75540000  0.50000000  0.57010700  1
  O  O70  1  0.76169900  0.00000000  0.24070400  1
  O  O71  1  0.75689300  0.50000000  0.23752000  1
  O  O72  1  0.81800400  0.50000000  0.39115900  1
  O  O73  1  0.82004900  0.00000000  0.39490100  1
  O  O74  1  0.81979100  0.50000000  0.72061000  1
  O  O75  1  0.81216800  0.00000000  0.72812000  1
  O  O76  1  0.82795400  0.75030600  0.03921800  1
  O  O77  1  0.82795400  0.24969400  0.03921800  1
  O  O78  1  0.92247000  0.50000000  0.87343900  1
  O  O79  1  0.92450300  0.00000000  0.87376700  1
  O  O80  1  0.91924800  0.50000000  0.20591600  1
  O  O81  1  0.92419700  0.00000000  0.20934100  1
  O  O82  1  0.93315650  0.73079450  0.55158000  1
  O  O83  1  0.93315650  0.26920550  0.55158000  1
  O  O84  1  0.99439550  0.24777250  0.40021000  1
  O  O85  1  0.99439550  0.75222750  0.40021000  1
  O  O86  1  0.50596000  0.00000000  0.07201900  1
  O  O87  1  0.50475600  0.50000000  0.07043800  1
  O  O88  1  0.51181400  0.50000000  0.74066600  1
  O  O89  1  0.50677800  0.00000000  0.73774800  1
  O  O90  1  0.56985200  0.50000000  0.89494000  1
  O  O91  1  0.56810900  0.00000000  0.89128800  1
  O  O92  1  0.56967200  0.50000000  0.22051600  1
  O  O93  1  0.56220100  0.00000000  0.22835100  1
  O  O94  1  0.57798000  0.25026600  0.53915600  1
  O  O95  1  0.57798000  0.74973400  0.53915600  1
  O  O96  1  0.67243800  0.50000000  0.37300700  1
  O  O97  1  0.67459600  0.00000000  0.37407600  1
  O  O98  1  0.67441400  0.50000000  0.70884700  1
  O  O99  1  0.66901300  0.00000000  0.70647300  1
  O  O100  1  0.68312700  0.73141600  0.05170400  1
  O  O101  1  0.68312700  0.26858400  0.05170400  1
  O  O102  1  0.74431800  0.24879000  0.90026800  1
  O  O103  1  0.74431800  0.75121000  0.90026800  1
  O  O104  1  0.25525600  0.50000000  0.57231300  1
  O  O105  1  0.25540000  0.00000000  0.57010700  1
  O  O106  1  0.26169900  0.50000000  0.24070400  1
  O  O107  1  0.25689300  0.00000000  0.23752000  1
  O  O108  1  0.31800400  0.00000000  0.39115900  1
  O  O109  1  0.32004900  0.50000000  0.39490100  1
  O  O110  1  0.31979100  0.00000000  0.72061000  1
  O  O111  1  0.31216800  0.50000000  0.72812000  1
  O  O112  1  0.32795400  0.25030600  0.03921800  1
  O  O113  1  0.32795400  0.74969400  0.03921800  1
  O  O114  1  0.42247000  0.00000000  0.87343900  1
  O  O115  1  0.42450300  0.50000000  0.87376700  1
  O  O116  1  0.41924800  0.00000000  0.20591600  1
  O  O117  1  0.42419700  0.50000000  0.20934100  1
  O  O118  1  0.43315650  0.23079450  0.55158000  1
  O  O119  1  0.43315650  0.76920550  0.55158000  1
  O  O120  1  0.49439550  0.74777250  0.40021000  1
  O  O121  1  0.49439550  0.25222750  0.40021000  1
  O  O122  1  0.00596000  0.50000000  0.07201900  1
  O  O123  1  0.00475600  0.00000000  0.07043800  1
  O  O124  1  0.01181400  0.00000000  0.74066600  1
  O  O125  1  0.00677800  0.50000000  0.73774800  1
  O  O126  1  0.06985200  0.00000000  0.89494000  1
  O  O127  1  0.06810900  0.50000000  0.89128800  1
  O  O128  1  0.06967200  0.00000000  0.22051600  1
  O  O129  1  0.06220100  0.50000000  0.22835100  1
  O  O130  1  0.07798000  0.75026600  0.53915600  1
  O  O131  1  0.07798000  0.24973400  0.53915600  1
  O  O132  1  0.17243800  0.00000000  0.37300700  1
  O  O133  1  0.17459600  0.50000000  0.37407600  1
  O  O134  1  0.17441400  0.00000000  0.70884700  1
  O  O135  1  0.16901300  0.50000000  0.70647300  1
  O  O136  1  0.18312700  0.23141600  0.05170400  1
  O  O137  1  0.18312700  0.76858400  0.05170400  1
  O  O138  1  0.24431800  0.74879000  0.90026800  1
  O  O139  1  0.24431800  0.25121000  0.90026800  1
