# generated using pymatgen
data_Fe10O9F11
_symmetry_space_group_name_H-M   'P 1'
_cell_length_a   6.42291600
_cell_length_b   7.08106000
_cell_length_c   15.41704200
_cell_angle_alpha   90.00000000
_cell_angle_beta   90.00000000
_cell_angle_gamma   90.00000000
_symmetry_Int_Tables_number   1
_chemical_formula_structural   Fe10O9F11
_chemical_formula_sum   'Fe20 O18 F22'
_cell_volume   701.18331311
_cell_formula_units_Z   2
loop_
 _symmetry_equiv_pos_site_id
 _symmetry_equiv_pos_as_xyz
  1  'x, y, z'
loop_
 _atom_site_type_symbol
 _atom_site_label
 _atom_site_symmetry_multiplicity
 _atom_site_fract_x
 _atom_site_fract_y
 _atom_site_fract_z
 _atom_site_occupancy
  Fe  Fe0  1  0.99468500  0.00000000  0.69806400  1
  Fe  Fe1  1  0.00002100  0.00000000  0.89974800  1
  Fe  Fe2  1  0.00002100  0.00000000  0.10025200  1
  Fe  Fe3  1  0.99468500  0.00000000  0.30193600  1
  Fe  Fe4  1  0.02387300  0.00000000  0.50000000  1
  Fe  Fe5  1  0.49939400  0.00000000  0.80224200  1
  Fe  Fe6  1  0.49939400  0.00000000  0.19775800  1
  Fe  Fe7  1  0.50020400  0.00000000  0.00000000  1
  Fe  Fe8  1  0.48857400  0.00000000  0.39363000  1
  Fe  Fe9  1  0.48857400  0.00000000  0.60637000  1
  Fe  Fe10  1  0.49468500  0.50000000  0.69806400  1
  Fe  Fe11  1  0.50002100  0.50000000  0.89974800  1
  Fe  Fe12  1  0.50002100  0.50000000  0.10025200  1
  Fe  Fe13  1  0.49468500  0.50000000  0.30193600  1
  Fe  Fe14  1  0.52387300  0.50000000  0.50000000  1
  Fe  Fe15  1  0.99939400  0.50000000  0.80224200  1
  Fe  Fe16  1  0.99939400  0.50000000  0.19775800  1
  Fe  Fe17  1  0.00020400  0.50000000  0.00000000  1
  Fe  Fe18  1  0.98857400  0.50000000  0.39363000  1
  Fe  Fe19  1  0.98857400  0.50000000  0.60637000  1
  O  O20  1  0.29396600  0.00000000  0.70308500  1
  O  O21  1  0.29930900  0.00000000  0.90066400  1
  O  O22  1  0.29930900  0.00000000  0.09933600  1
  O  O23  1  0.29396600  0.00000000  0.29691500  1
  O  O24  1  0.32740000  0.00000000  0.50000000  1
  O  O25  1  0.69759000  0.00000000  0.70060400  1
  O  O26  1  0.70018800  0.00000000  0.90037500  1
  O  O27  1  0.70018800  0.00000000  0.09962500  1
  O  O28  1  0.69759000  0.00000000  0.29939600  1
  O  O29  1  0.79396600  0.50000000  0.70308500  1
  O  O30  1  0.79930900  0.50000000  0.90066400  1
  O  O31  1  0.79930900  0.50000000  0.09933600  1
  O  O32  1  0.79396600  0.50000000  0.29691500  1
  O  O33  1  0.82740000  0.50000000  0.50000000  1
  O  O34  1  0.19759000  0.50000000  0.70060400  1
  O  O35  1  0.20018800  0.50000000  0.90037500  1
  O  O36  1  0.20018800  0.50000000  0.09962500  1
  O  O37  1  0.19759000  0.50000000  0.29939600  1
  F  F38  1  0.49766900  0.30762900  0.80015800  1
  F  F39  1  0.49991600  0.30711000  0.00000000  1
  F  F40  1  0.49766900  0.30762900  0.19984200  1
  F  F41  1  0.50001100  0.29835400  0.39560800  1
  F  F42  1  0.50001100  0.29835400  0.60439200  1
  F  F43  1  0.71052100  0.00000000  0.50000000  1
  F  F44  1  0.49766900  0.69237100  0.80015800  1
  F  F45  1  0.49766900  0.69237100  0.19984200  1
  F  F46  1  0.49991600  0.69289000  0.00000000  1
  F  F47  1  0.50001100  0.70164600  0.60439200  1
  F  F48  1  0.50001100  0.70164600  0.39560800  1
  F  F49  1  0.99766900  0.80762900  0.80015800  1
  F  F50  1  0.99991600  0.80711000  0.00000000  1
  F  F51  1  0.99766900  0.80762900  0.19984200  1
  F  F52  1  0.00001100  0.79835400  0.39560800  1
  F  F53  1  0.00001100  0.79835400  0.60439200  1
  F  F54  1  0.21052100  0.50000000  0.50000000  1
  F  F55  1  0.99766900  0.19237100  0.80015800  1
  F  F56  1  0.99766900  0.19237100  0.19984200  1
  F  F57  1  0.99991600  0.19289000  0.00000000  1
  F  F58  1  0.00001100  0.20164600  0.60439200  1
  F  F59  1  0.00001100  0.20164600  0.39560800  1
