# generated using pymatgen
data_Mn6O7F5
_symmetry_space_group_name_H-M   'P 1'
_cell_length_a   6.84587200
_cell_length_b   6.40485400
_cell_length_c   9.22759955
_cell_angle_alpha   90.00000000
_cell_angle_beta   90.42807692
_cell_angle_gamma   90.00000000
_symmetry_Int_Tables_number   1
_chemical_formula_structural   Mn6O7F5
_chemical_formula_sum   'Mn12 O14 F10'
_cell_volume   404.58951759
_cell_formula_units_Z   2
loop_
 _symmetry_equiv_pos_site_id
 _symmetry_equiv_pos_as_xyz
  1  'x, y, z'
loop_
 _atom_site_type_symbol
 _atom_site_label
 _atom_site_symmetry_multiplicity
 _atom_site_fract_x
 _atom_site_fract_y
 _atom_site_fract_z
 _atom_site_occupancy
  Mn  Mn0  1  0.99196750  0.00475750  0.82494300  1
  Mn  Mn1  1  0.50000000  0.47638900  0.50000000  1
  Mn  Mn2  1  0.00803250  0.00475750  0.17505700  1
  Mn  Mn3  1  0.50000000  0.00598000  0.00000000  1
  Mn  Mn4  1  0.52394250  0.00503450  0.67422900  1
  Mn  Mn5  1  0.47605750  0.00503450  0.32577100  1
  Mn  Mn6  1  0.49196750  0.50475750  0.82494300  1
  Mn  Mn7  1  0.00000000  0.97638900  0.50000000  1
  Mn  Mn8  1  0.50803250  0.50475750  0.17505700  1
  Mn  Mn9  1  0.00000000  0.50598000  0.00000000  1
  Mn  Mn10  1  0.02394250  0.50503450  0.67422900  1
  Mn  Mn11  1  0.97605750  0.50503450  0.32577100  1
  O  O12  1  0.18310600  0.99798000  0.33781200  1
  O  O13  1  0.51287950  0.20066650  0.83389800  1
  O  O14  1  0.50000000  0.17934200  0.50000000  1
  O  O15  1  0.48712050  0.20066650  0.16610200  1
  O  O16  1  0.51381500  0.81138700  0.83278600  1
  O  O17  1  0.48618500  0.81138700  0.16721400  1
  O  O18  1  0.81689400  0.99798000  0.66218800  1
  O  O19  1  0.68310600  0.49798000  0.33781200  1
  O  O20  1  0.01287950  0.70066650  0.83389800  1
  O  O21  1  0.00000000  0.67934200  0.50000000  1
  O  O22  1  0.98712050  0.70066650  0.16610200  1
  O  O23  1  0.01381500  0.31138700  0.83278600  1
  O  O24  1  0.98618500  0.31138700  0.16721400  1
  O  O25  1  0.31689400  0.49798000  0.66218800  1
  F  F26  1  0.21949350  0.99761150  0.66364600  1
  F  F27  1  0.18672200  0.00506000  0.98836100  1
  F  F28  1  0.50000000  0.79329300  0.50000000  1
  F  F29  1  0.78050650  0.99761150  0.33635400  1
  F  F30  1  0.81327800  0.00506000  0.01163900  1
  F  F31  1  0.71949350  0.49761150  0.66364600  1
  F  F32  1  0.68672200  0.50506000  0.98836100  1
  F  F33  1  0.00000000  0.29329300  0.50000000  1
  F  F34  1  0.28050650  0.49761150  0.33635400  1
  F  F35  1  0.31327800  0.50506000  0.01163900  1
