# generated using pymatgen
data_LiCrSiO4
_symmetry_space_group_name_H-M   'P 1'
_cell_length_a   4.73463300
_cell_length_b   6.14987200
_cell_length_c   10.27605400
_cell_angle_alpha   90.00000000
_cell_angle_beta   90.00000000
_cell_angle_gamma   90.00000000
_symmetry_Int_Tables_number   1
_chemical_formula_structural   LiCrSiO4
_chemical_formula_sum   'Li4 Cr4 Si4 O16'
_cell_volume   299.21184030
_cell_formula_units_Z   4
loop_
 _symmetry_equiv_pos_site_id
 _symmetry_equiv_pos_as_xyz
  1  'x, y, z'
loop_
 _atom_site_type_symbol
 _atom_site_label
 _atom_site_symmetry_multiplicity
 _atom_site_fract_x
 _atom_site_fract_y
 _atom_site_fract_z
 _atom_site_occupancy
  Li  Li0  1  0.01772300  0.75000000  0.78467350  1
  Li  Li1  1  0.48227700  0.75000000  0.28467350  1
  Li  Li2  1  0.51772300  0.25000000  0.71532650  1
  Li  Li3  1  0.98227700  0.25000000  0.21532650  1
  Cr  Cr4  1  0.00000000  0.00000000  0.50000000  1
  Cr  Cr5  1  0.50000000  0.00000000  0.00000000  1
  Cr  Cr6  1  0.50000000  0.50000000  0.00000000  1
  Cr  Cr7  1  0.00000000  0.50000000  0.50000000  1
  Si  Si8  1  0.08090800  0.25000000  0.90949950  1
  Si  Si9  1  0.41909200  0.25000000  0.40949950  1
  Si  Si10  1  0.58090800  0.75000000  0.59050050  1
  Si  Si11  1  0.91909200  0.75000000  0.09050050  1
  O  O12  1  0.25038900  0.25000000  0.05695950  1
  O  O13  1  0.22178700  0.02937800  0.84997650  1
  O  O14  1  0.22178700  0.47062200  0.84997650  1
  O  O15  1  0.23421700  0.75000000  0.58061450  1
  O  O16  1  0.26578300  0.75000000  0.08061450  1
  O  O17  1  0.27821300  0.47062200  0.34997650  1
  O  O18  1  0.27821300  0.02937800  0.34997650  1
  O  O19  1  0.24961100  0.25000000  0.55695950  1
  O  O20  1  0.75038900  0.75000000  0.44304050  1
  O  O21  1  0.72178700  0.52937800  0.65002350  1
  O  O22  1  0.72178700  0.97062200  0.65002350  1
  O  O23  1  0.73421700  0.25000000  0.91938550  1
  O  O24  1  0.76578300  0.25000000  0.41938550  1
  O  O25  1  0.77821300  0.97062200  0.15002350  1
  O  O26  1  0.77821300  0.52937800  0.15002350  1
  O  O27  1  0.74961100  0.75000000  0.94304050  1
