# generated using pymatgen
data_Sc3OsC4
_symmetry_space_group_name_H-M   'P 1'
_cell_length_a   12.85526200
_cell_length_b   4.48401000
_cell_length_c   6.71752345
_cell_angle_alpha   90.00000000
_cell_angle_beta   105.17411400
_cell_angle_gamma   90.00000000
_symmetry_Int_Tables_number   1
_chemical_formula_structural   Sc3OsC4
_chemical_formula_sum   'Sc12 Os4 C16'
_cell_volume   373.71858397
_cell_formula_units_Z   4
loop_
 _symmetry_equiv_pos_site_id
 _symmetry_equiv_pos_as_xyz
  1  'x, y, z'
loop_
 _atom_site_type_symbol
 _atom_site_label
 _atom_site_symmetry_multiplicity
 _atom_site_fract_x
 _atom_site_fract_y
 _atom_site_fract_z
 _atom_site_occupancy
  Sc  Sc0  1  0.00000000  0.50000000  0.00000000  1
  Sc  Sc1  1  0.00000000  0.50000000  0.50000000  1
  Sc  Sc2  1  0.18952300  0.00000000  0.09441600  1
  Sc  Sc3  1  0.19175800  0.00000000  0.59631000  1
  Sc  Sc4  1  0.30824200  0.50000000  0.40369000  1
  Sc  Sc5  1  0.31047700  0.50000000  0.90558400  1
  Sc  Sc6  1  0.50000000  0.00000000  0.00000000  1
  Sc  Sc7  1  0.50000000  0.00000000  0.50000000  1
  Sc  Sc8  1  0.68952300  0.50000000  0.09441600  1
  Sc  Sc9  1  0.69175800  0.50000000  0.59631000  1
  Sc  Sc10  1  0.80824200  0.00000000  0.40369000  1
  Sc  Sc11  1  0.81047700  0.00000000  0.90558400  1
  Os  Os12  1  0.00029600  0.00000000  0.73618200  1
  Os  Os13  1  0.49970400  0.50000000  0.26381800  1
  Os  Os14  1  0.50029600  0.50000000  0.73618200  1
  Os  Os15  1  0.99970400  0.00000000  0.26381800  1
  C  C16  1  0.12733850  0.33917750  0.31469800  1
  C  C17  1  0.12733850  0.66082250  0.31469800  1
  C  C18  1  0.12827900  0.33962000  0.81325100  1
  C  C19  1  0.12827900  0.66038000  0.81325100  1
  C  C20  1  0.37172100  0.83962000  0.18674900  1
  C  C21  1  0.37172100  0.16038000  0.18674900  1
  C  C22  1  0.37266150  0.83917750  0.68530200  1
  C  C23  1  0.37266150  0.16082250  0.68530200  1
  C  C24  1  0.62733850  0.83917750  0.31469800  1
  C  C25  1  0.62733850  0.16082250  0.31469800  1
  C  C26  1  0.62827900  0.83962000  0.81325100  1
  C  C27  1  0.62827900  0.16038000  0.81325100  1
  C  C28  1  0.87172100  0.33962000  0.18674900  1
  C  C29  1  0.87172100  0.66038000  0.18674900  1
  C  C30  1  0.87266150  0.33917750  0.68530200  1
  C  C31  1  0.87266150  0.66082250  0.68530200  1
