# generated using pymatgen
data_Mn2CrFe3(PO4)6
_symmetry_space_group_name_H-M   'P 1'
_cell_length_a   8.63950497
_cell_length_b   8.63950497
_cell_length_c   21.05283041
_cell_angle_alpha   90.00000000
_cell_angle_beta   90.00000000
_cell_angle_gamma   120.00000000
_symmetry_Int_Tables_number   1
_chemical_formula_structural   Mn2CrFe3(PO4)6
_chemical_formula_sum   'Mn6 Cr3 Fe9 P18 O72'
_cell_volume   1360.87689664
_cell_formula_units_Z   3
loop_
 _symmetry_equiv_pos_site_id
 _symmetry_equiv_pos_as_xyz
  1  'x, y, z'
loop_
 _atom_site_type_symbol
 _atom_site_label
 _atom_site_symmetry_multiplicity
 _atom_site_fract_x
 _atom_site_fract_y
 _atom_site_fract_z
 _atom_site_occupancy
  Mn  Mn0  1  0.33333333  0.66666667  0.66535767  1
  Mn  Mn1  1  0.33333333  0.66666667  0.16632167  1
  Mn  Mn2  1  0.00000000  0.00000000  0.99869100  1
  Mn  Mn3  1  0.00000000  0.00000000  0.49965500  1
  Mn  Mn4  1  0.66666667  0.33333333  0.33202433  1
  Mn  Mn5  1  0.66666667  0.33333333  0.83298833  1
  Cr  Cr6  1  0.33333333  0.66666667  0.80961267  1
  Cr  Cr7  1  0.00000000  0.00000000  0.14294600  1
  Cr  Cr8  1  0.66666667  0.33333333  0.47627933  1
  Fe  Fe9  1  0.33333333  0.66666667  0.52134067  1
  Fe  Fe10  1  0.33333333  0.66666667  0.31268167  1
  Fe  Fe11  1  0.33333333  0.66666667  0.02117667  1
  Fe  Fe12  1  0.00000000  0.00000000  0.85467400  1
  Fe  Fe13  1  0.00000000  0.00000000  0.64601500  1
  Fe  Fe14  1  0.00000000  0.00000000  0.35451000  1
  Fe  Fe15  1  0.66666667  0.33333333  0.18800733  1
  Fe  Fe16  1  0.66666667  0.33333333  0.97934833  1
  Fe  Fe17  1  0.66666667  0.33333333  0.68784333  1
  P  P18  1  0.00070433  0.29248167  0.24983167  1
  P  P19  1  0.70751833  0.70822267  0.24983167  1
  P  P20  1  0.29177733  0.99929567  0.24983167  1
  P  P21  1  0.37159300  0.33236400  0.08407300  1
  P  P22  1  0.96077100  0.62840700  0.08407300  1
  P  P23  1  0.66763600  0.03922900  0.08407300  1
  P  P24  1  0.66737100  0.62581500  0.58316500  1
  P  P25  1  0.37418500  0.04155600  0.58316500  1
  P  P26  1  0.95844400  0.33262900  0.58316500  1
  P  P27  1  0.03825967  0.66569733  0.41740633  1
  P  P28  1  0.62743767  0.96174033  0.41740633  1
  P  P29  1  0.33430267  0.37256233  0.41740633  1
  P  P30  1  0.33403767  0.95914833  0.91649833  1
  P  P31  1  0.04085167  0.37488933  0.91649833  1
  P  P32  1  0.62511067  0.66596233  0.91649833  1
  P  P33  1  0.70492633  0.99903067  0.75073967  1
  P  P34  1  0.29410433  0.29507367  0.75073967  1
  P  P35  1  0.00096933  0.70589567  0.75073967  1
  O  O36  1  0.33721967  0.47030733  0.35659033  1
  O  O37  1  0.13308767  0.66278033  0.35659033  1
  O  O38  1  0.83259567  0.31391233  0.25567333  1
  O  O39  1  0.52969267  0.86691233  0.35659033  1
  O  O40  1  0.99712433  0.19077467  0.18912867  1
  O  O41  1  0.17044667  0.48095733  0.24224033  1
  O  O42  1  0.68608767  0.51868333  0.25567333  1
  O  O43  1  0.51904267  0.68948933  0.24224033  1
  O  O44  1  0.46783500  0.33001800  0.14434600  1
  O  O45  1  0.31051067  0.82955333  0.24224033  1
  O  O46  1  0.17955300  0.16293600  0.07904400  1
  O  O47  1  0.86218300  0.53216500  0.14434600  1
  O  O48  1  0.80922533  0.80634967  0.18912867  1
  O  O49  1  0.48131667  0.16740433  0.25567333  1
  O  O50  1  0.34786900  0.49938300  0.08998800  1
  O  O51  1  0.19365033  0.00287567  0.18912867  1
  O  O52  1  0.15151400  0.65213100  0.08998800  1
  O  O53  1  0.98338300  0.82044700  0.07904400  1
  O  O54  1  0.50061700  0.84848600  0.08998800  1
  O  O55  1  0.66998200  0.13781700  0.14434600  1
  O  O56  1  0.13456833  0.47388967  0.97692067  1
  O  O57  1  0.83706400  0.01661700  0.07904400  1
  O  O58  1  0.52611033  0.66067867  0.97692067  1
  O  O59  1  0.33932133  0.86543167  0.97692067  1
  O  O60  1  0.00388633  0.80364067  0.68992367  1
  O  O61  1  0.79975433  0.99611367  0.68992367  1
  O  O62  1  0.49926233  0.64724567  0.58900667  1
  O  O63  1  0.19635933  0.20024567  0.68992367  1
  O  O64  1  0.66379100  0.52410800  0.52246200  1
  O  O65  1  0.83711333  0.81429067  0.57557367  1
  O  O66  1  0.35275433  0.85201667  0.58900667  1
  O  O67  1  0.18570933  0.02282267  0.57557367  1
  O  O68  1  0.13450167  0.66335133  0.47767933  1
  O  O69  1  0.97717733  0.16288667  0.57557367  1
  O  O70  1  0.84621967  0.49626933  0.41237733  1
  O  O71  1  0.52884967  0.86549833  0.47767933  1
  O  O72  1  0.47589200  0.13968300  0.52246200  1
  O  O73  1  0.14798333  0.50073767  0.58900667  1
  O  O74  1  0.01453567  0.83271633  0.42332133  1
  O  O75  1  0.86031700  0.33620900  0.52246200  1
  O  O76  1  0.81818067  0.98546433  0.42332133  1
  O  O77  1  0.65004967  0.15378033  0.41237733  1
  O  O78  1  0.16728367  0.18181933  0.42332133  1
  O  O79  1  0.33664867  0.47115033  0.47767933  1
  O  O80  1  0.80123500  0.80722300  0.31025400  1
  O  O81  1  0.50373067  0.34995033  0.41237733  1
  O  O82  1  0.19277700  0.99401200  0.31025400  1
  O  O83  1  0.00598800  0.19876500  0.31025400  1
  O  O84  1  0.67055300  0.13697400  0.02325700  1
  O  O85  1  0.46642100  0.32944700  0.02325700  1
  O  O86  1  0.16592900  0.98057900  0.92234000  1
  O  O87  1  0.86302600  0.53357900  0.02325700  1
  O  O88  1  0.33045767  0.85744133  0.85579533  1
  O  O89  1  0.50378000  0.14762400  0.90890700  1
  O  O90  1  0.01942100  0.18535000  0.92234000  1
  O  O91  1  0.85237600  0.35615600  0.90890700  1
  O  O92  1  0.80116833  0.99668467  0.81101267  1
  O  O93  1  0.64384400  0.49622000  0.90890700  1
  O  O94  1  0.51288633  0.82960267  0.74571067  1
  O  O95  1  0.19551633  0.19883167  0.81101267  1
  O  O96  1  0.14255867  0.47301633  0.85579533  1
  O  O97  1  0.81465000  0.83407100  0.92234000  1
  O  O98  1  0.68120233  0.16604967  0.75665467  1
  O  O99  1  0.52698367  0.66954233  0.85579533  1
  O  O100  1  0.48484733  0.31879767  0.75665467  1
  O  O101  1  0.31671633  0.48711367  0.74571067  1
  O  O102  1  0.83395033  0.51515267  0.75665467  1
  O  O103  1  0.00331533  0.80448367  0.81101267  1
  O  O104  1  0.46790167  0.14055633  0.64358733  1
  O  O105  1  0.17039733  0.68328367  0.74571067  1
  O  O106  1  0.85944367  0.32734533  0.64358733  1
  O  O107  1  0.67265467  0.53209833  0.64358733  1
