# generated using pymatgen
data_Tb2Ni12As7
_symmetry_space_group_name_H-M   'P 1'
_cell_length_a   9.35067827
_cell_length_b   9.35067827
_cell_length_c   3.85108400
_cell_angle_alpha   90.00000000
_cell_angle_beta   90.00000000
_cell_angle_gamma   120.00000000
_symmetry_Int_Tables_number   1
_chemical_formula_structural   Tb2Ni12As7
_chemical_formula_sum   'Tb2 Ni12 As7'
_cell_volume   291.60828043
_cell_formula_units_Z   1
loop_
 _symmetry_equiv_pos_site_id
 _symmetry_equiv_pos_as_xyz
  1  'x, y, z'
loop_
 _atom_site_type_symbol
 _atom_site_label
 _atom_site_symmetry_multiplicity
 _atom_site_fract_x
 _atom_site_fract_y
 _atom_site_fract_z
 _atom_site_occupancy
  Tb  Tb0  1  0.66666667  0.33333333  0.00000000  1
  Tb  Tb1  1  0.00000000  0.00000000  0.50000000  1
  Ni  Ni2  1  0.71038867  0.09145833  0.50000000  1
  Ni  Ni3  1  0.90854167  0.61893033  0.50000000  1
  Ni  Ni4  1  0.38106967  0.28961133  0.50000000  1
  Ni  Ni5  1  0.77341767  0.72266733  0.00000000  1
  Ni  Ni6  1  0.27733267  0.05075033  0.00000000  1
  Ni  Ni7  1  0.94924967  0.22658233  0.00000000  1
  Ni  Ni8  1  0.54471167  0.76251833  0.50000000  1
  Ni  Ni9  1  0.23748167  0.78219333  0.50000000  1
  Ni  Ni10  1  0.21780667  0.45528833  0.50000000  1
  Ni  Ni11  1  0.48395967  0.94617133  0.00000000  1
  Ni  Ni12  1  0.05382867  0.53778833  0.00000000  1
  Ni  Ni13  1  0.46221167  0.51604033  0.00000000  1
  As  As14  1  0.33333333  0.66666667  0.00000000  1
  As  As15  1  0.44194667  0.07320633  0.50000000  1
  As  As16  1  0.92679367  0.36874033  0.50000000  1
  As  As17  1  0.63125967  0.55805333  0.50000000  1
  As  As18  1  0.73579767  0.95145933  0.00000000  1
  As  As19  1  0.04854067  0.78433833  0.00000000  1
  As  As20  1  0.21566167  0.26420233  0.00000000  1
