# generated using pymatgen
data_Na6V2As(CO4)4
_symmetry_space_group_name_H-M   'P 1'
_cell_length_a   14.20787200
_cell_length_b   14.20787200
_cell_length_c   14.20787200
_cell_angle_alpha   90.00000000
_cell_angle_beta   90.00000000
_cell_angle_gamma   90.00000000
_symmetry_Int_Tables_number   1
_chemical_formula_structural   Na6V2As(CO4)4
_chemical_formula_sum   'Na48 V16 As8 C32 O128'
_cell_volume   2868.05257058
_cell_formula_units_Z   8
loop_
 _symmetry_equiv_pos_site_id
 _symmetry_equiv_pos_as_xyz
  1  'x, y, z'
loop_
 _atom_site_type_symbol
 _atom_site_label
 _atom_site_symmetry_multiplicity
 _atom_site_fract_x
 _atom_site_fract_y
 _atom_site_fract_z
 _atom_site_occupancy
  Na  Na0  1  0.25000000  0.95867400  0.75000000  1
  Na  Na1  1  0.79132600  0.00000000  0.00000000  1
  Na  Na2  1  0.25000000  0.75000000  0.95867400  1
  Na  Na3  1  0.25000000  0.75000000  0.54132600  1
  Na  Na4  1  0.20867400  0.00000000  0.00000000  1
  Na  Na5  1  0.00000000  0.20867400  0.00000000  1
  Na  Na6  1  0.04132600  0.75000000  0.75000000  1
  Na  Na7  1  0.75000000  0.04132600  0.75000000  1
  Na  Na8  1  0.00000000  0.00000000  0.79132600  1
  Na  Na9  1  0.00000000  0.00000000  0.20867400  1
  Na  Na10  1  0.45867400  0.75000000  0.75000000  1
  Na  Na11  1  0.00000000  0.79132600  0.00000000  1
  Na  Na12  1  0.25000000  0.45867400  0.25000000  1
  Na  Na13  1  0.79132600  0.50000000  0.50000000  1
  Na  Na14  1  0.25000000  0.25000000  0.45867400  1
  Na  Na15  1  0.25000000  0.25000000  0.04132600  1
  Na  Na16  1  0.20867400  0.50000000  0.50000000  1
  Na  Na17  1  0.00000000  0.70867400  0.50000000  1
  Na  Na18  1  0.04132600  0.25000000  0.25000000  1
  Na  Na19  1  0.75000000  0.54132600  0.25000000  1
  Na  Na20  1  0.00000000  0.50000000  0.29132600  1
  Na  Na21  1  0.00000000  0.50000000  0.70867400  1
  Na  Na22  1  0.45867400  0.25000000  0.25000000  1
  Na  Na23  1  0.00000000  0.29132600  0.50000000  1
  Na  Na24  1  0.75000000  0.95867400  0.25000000  1
  Na  Na25  1  0.29132600  0.00000000  0.50000000  1
  Na  Na26  1  0.75000000  0.75000000  0.45867400  1
  Na  Na27  1  0.75000000  0.75000000  0.04132600  1
  Na  Na28  1  0.70867400  0.00000000  0.50000000  1
  Na  Na29  1  0.50000000  0.20867400  0.50000000  1
  Na  Na30  1  0.54132600  0.75000000  0.25000000  1
  Na  Na31  1  0.25000000  0.04132600  0.25000000  1
  Na  Na32  1  0.50000000  0.00000000  0.29132600  1
  Na  Na33  1  0.50000000  0.00000000  0.70867400  1
  Na  Na34  1  0.95867400  0.75000000  0.25000000  1
  Na  Na35  1  0.50000000  0.79132600  0.50000000  1
  Na  Na36  1  0.75000000  0.45867400  0.75000000  1
  Na  Na37  1  0.29132600  0.50000000  0.00000000  1
  Na  Na38  1  0.75000000  0.25000000  0.95867400  1
  Na  Na39  1  0.75000000  0.25000000  0.54132600  1
  Na  Na40  1  0.70867400  0.50000000  0.00000000  1
  Na  Na41  1  0.50000000  0.70867400  0.00000000  1
  Na  Na42  1  0.54132600  0.25000000  0.75000000  1
  Na  Na43  1  0.25000000  0.54132600  0.75000000  1
  Na  Na44  1  0.50000000  0.50000000  0.79132600  1
  Na  Na45  1  0.50000000  0.50000000  0.20867400  1
  Na  Na46  1  0.95867400  0.25000000  0.75000000  1
  Na  Na47  1  0.50000000  0.29132600  0.00000000  1
  V  V48  1  0.87500000  0.87500000  0.62500000  1
  V  V49  1  0.87500000  0.12500000  0.37500000  1
  V  V50  1  0.12500000  0.12500000  0.62500000  1
  V  V51  1  0.12500000  0.87500000  0.37500000  1
  V  V52  1  0.87500000  0.37500000  0.12500000  1
  V  V53  1  0.87500000  0.62500000  0.87500000  1
  V  V54  1  0.12500000  0.62500000  0.12500000  1
  V  V55  1  0.12500000  0.37500000  0.87500000  1
  V  V56  1  0.37500000  0.87500000  0.12500000  1
  V  V57  1  0.37500000  0.12500000  0.87500000  1
  V  V58  1  0.62500000  0.12500000  0.12500000  1
  V  V59  1  0.62500000  0.87500000  0.87500000  1
  V  V60  1  0.37500000  0.37500000  0.62500000  1
  V  V61  1  0.37500000  0.62500000  0.37500000  1
  V  V62  1  0.62500000  0.62500000  0.62500000  1
  V  V63  1  0.62500000  0.37500000  0.37500000  1
  As  As64  1  0.25000000  0.75000000  0.75000000  1
  As  As65  1  0.00000000  0.00000000  0.00000000  1
  As  As66  1  0.25000000  0.25000000  0.25000000  1
  As  As67  1  0.00000000  0.50000000  0.50000000  1
  As  As68  1  0.75000000  0.75000000  0.25000000  1
  As  As69  1  0.50000000  0.00000000  0.50000000  1
  As  As70  1  0.75000000  0.25000000  0.75000000  1
  As  As71  1  0.50000000  0.50000000  0.00000000  1
  C  C72  1  0.16073700  0.16073700  0.83926300  1
  C  C73  1  0.83926300  0.16073700  0.16073700  1
  C  C74  1  0.16073700  0.83926300  0.16073700  1
  C  C75  1  0.83926300  0.83926300  0.83926300  1
  C  C76  1  0.41073700  0.91073700  0.91073700  1
  C  C77  1  0.08926300  0.91073700  0.58926300  1
  C  C78  1  0.91073700  0.08926300  0.58926300  1
  C  C79  1  0.58926300  0.08926300  0.91073700  1
  C  C80  1  0.16073700  0.66073700  0.33926300  1
  C  C81  1  0.83926300  0.66073700  0.66073700  1
  C  C82  1  0.16073700  0.33926300  0.66073700  1
  C  C83  1  0.83926300  0.33926300  0.33926300  1
  C  C84  1  0.41073700  0.41073700  0.41073700  1
  C  C85  1  0.08926300  0.41073700  0.08926300  1
  C  C86  1  0.91073700  0.58926300  0.08926300  1
  C  C87  1  0.58926300  0.58926300  0.41073700  1
  C  C88  1  0.66073700  0.16073700  0.33926300  1
  C  C89  1  0.33926300  0.16073700  0.66073700  1
  C  C90  1  0.66073700  0.83926300  0.66073700  1
  C  C91  1  0.33926300  0.83926300  0.33926300  1
  C  C92  1  0.91073700  0.91073700  0.41073700  1
  C  C93  1  0.58926300  0.91073700  0.08926300  1
  C  C94  1  0.41073700  0.08926300  0.08926300  1
  C  C95  1  0.08926300  0.08926300  0.41073700  1
  C  C96  1  0.66073700  0.66073700  0.83926300  1
  C  C97  1  0.33926300  0.66073700  0.16073700  1
  C  C98  1  0.66073700  0.33926300  0.16073700  1
  C  C99  1  0.33926300  0.33926300  0.83926300  1
  C  C100  1  0.91073700  0.41073700  0.91073700  1
  C  C101  1  0.58926300  0.41073700  0.58926300  1
  C  C102  1  0.41073700  0.58926300  0.58926300  1
  C  C103  1  0.08926300  0.58926300  0.91073700  1
  O  O104  1  0.14710600  0.89687350  0.51991350  1
  O  O105  1  0.64710600  0.10312650  0.98008650  1
  O  O106  1  0.23008650  0.10289400  0.85312650  1
  O  O107  1  0.26991350  0.10289400  0.64687350  1
  O  O108  1  0.64687350  0.23008650  0.39710600  1
  O  O109  1  0.67986500  0.17986500  0.67986500  1
  O  O110  1  0.14687350  0.76991350  0.10289400  1
  O  O111  1  0.17986500  0.82013500  0.82013500  1
  O  O112  1  0.82013500  0.17986500  0.82013500  1
  O  O113  1  0.39710600  0.14687350  0.73008650  1
  O  O114  1  0.85312650  0.23008650  0.10289400  1
  O  O115  1  0.32013500  0.82013500  0.67986500  1
  O  O116  1  0.35312650  0.76991350  0.39710600  1
  O  O117  1  0.73008650  0.89710600  0.64687350  1
  O  O118  1  0.76991350  0.89710600  0.85312650  1
  O  O119  1  0.35289400  0.89687350  0.98008650  1
  O  O120  1  0.89710600  0.85312650  0.76991350  1
  O  O121  1  0.48008650  0.85289400  0.89687350  1
  O  O122  1  0.01991350  0.85289400  0.60312650  1
  O  O123  1  0.39687350  0.98008650  0.85289400  1
  O  O124  1  0.92986500  0.92986500  0.07013500  1
  O  O125  1  0.89687350  0.01991350  0.64710600  1
  O  O126  1  0.85289400  0.10312650  0.51991350  1
  O  O127  1  0.07013500  0.92986500  0.92986500  1
  O  O128  1  0.92986500  0.07013500  0.92986500  1
  O  O129  1  0.10312650  0.98008650  0.64710600  1
  O  O130  1  0.07013500  0.07013500  0.07013500  1
  O  O131  1  0.60312650  0.01991350  0.85289400  1
  O  O132  1  0.98008650  0.14710600  0.60312650  1
  O  O133  1  0.51991350  0.14710600  0.89687350  1
  O  O134  1  0.10289400  0.14687350  0.76991350  1
  O  O135  1  0.60289400  0.85312650  0.73008650  1
  O  O136  1  0.14710600  0.39687350  0.01991350  1
  O  O137  1  0.64710600  0.60312650  0.48008650  1
  O  O138  1  0.23008650  0.60289400  0.35312650  1
  O  O139  1  0.26991350  0.60289400  0.14687350  1
  O  O140  1  0.64687350  0.73008650  0.89710600  1
  O  O141  1  0.67986500  0.67986500  0.17986500  1
  O  O142  1  0.14687350  0.26991350  0.60289400  1
  O  O143  1  0.17986500  0.32013500  0.32013500  1
  O  O144  1  0.82013500  0.67986500  0.32013500  1
  O  O145  1  0.39710600  0.64687350  0.23008650  1
  O  O146  1  0.85312650  0.73008650  0.60289400  1
  O  O147  1  0.32013500  0.32013500  0.17986500  1
  O  O148  1  0.35312650  0.26991350  0.89710600  1
  O  O149  1  0.73008650  0.39710600  0.14687350  1
  O  O150  1  0.76991350  0.39710600  0.35312650  1
  O  O151  1  0.35289400  0.39687350  0.48008650  1
  O  O152  1  0.89710600  0.35312650  0.26991350  1
  O  O153  1  0.48008650  0.35289400  0.39687350  1
  O  O154  1  0.01991350  0.35289400  0.10312650  1
  O  O155  1  0.39687350  0.48008650  0.35289400  1
  O  O156  1  0.92986500  0.42986500  0.57013500  1
  O  O157  1  0.89687350  0.51991350  0.14710600  1
  O  O158  1  0.85289400  0.60312650  0.01991350  1
  O  O159  1  0.07013500  0.42986500  0.42986500  1
  O  O160  1  0.92986500  0.57013500  0.42986500  1
  O  O161  1  0.10312650  0.48008650  0.14710600  1
  O  O162  1  0.07013500  0.57013500  0.57013500  1
  O  O163  1  0.60312650  0.51991350  0.35289400  1
  O  O164  1  0.98008650  0.64710600  0.10312650  1
  O  O165  1  0.51991350  0.64710600  0.39687350  1
  O  O166  1  0.10289400  0.64687350  0.26991350  1
  O  O167  1  0.60289400  0.35312650  0.23008650  1
  O  O168  1  0.64710600  0.89687350  0.01991350  1
  O  O169  1  0.14710600  0.10312650  0.48008650  1
  O  O170  1  0.73008650  0.10289400  0.35312650  1
  O  O171  1  0.76991350  0.10289400  0.14687350  1
  O  O172  1  0.14687350  0.23008650  0.89710600  1
  O  O173  1  0.17986500  0.17986500  0.17986500  1
  O  O174  1  0.64687350  0.76991350  0.60289400  1
  O  O175  1  0.67986500  0.82013500  0.32013500  1
  O  O176  1  0.32013500  0.17986500  0.32013500  1
  O  O177  1  0.89710600  0.14687350  0.23008650  1
  O  O178  1  0.35312650  0.23008650  0.60289400  1
  O  O179  1  0.82013500  0.82013500  0.17986500  1
  O  O180  1  0.85312650  0.76991350  0.89710600  1
  O  O181  1  0.23008650  0.89710600  0.14687350  1
  O  O182  1  0.26991350  0.89710600  0.35312650  1
  O  O183  1  0.85289400  0.89687350  0.48008650  1
  O  O184  1  0.39710600  0.85312650  0.26991350  1
  O  O185  1  0.98008650  0.85289400  0.39687350  1
  O  O186  1  0.51991350  0.85289400  0.10312650  1
  O  O187  1  0.89687350  0.98008650  0.35289400  1
  O  O188  1  0.42986500  0.92986500  0.57013500  1
  O  O189  1  0.39687350  0.01991350  0.14710600  1
  O  O190  1  0.35289400  0.10312650  0.01991350  1
  O  O191  1  0.57013500  0.92986500  0.42986500  1
  O  O192  1  0.42986500  0.07013500  0.42986500  1
  O  O193  1  0.60312650  0.98008650  0.14710600  1
  O  O194  1  0.57013500  0.07013500  0.57013500  1
  O  O195  1  0.10312650  0.01991350  0.35289400  1
  O  O196  1  0.48008650  0.14710600  0.10312650  1
  O  O197  1  0.01991350  0.14710600  0.39687350  1
  O  O198  1  0.60289400  0.14687350  0.26991350  1
  O  O199  1  0.10289400  0.85312650  0.23008650  1
  O  O200  1  0.64710600  0.39687350  0.51991350  1
  O  O201  1  0.14710600  0.60312650  0.98008650  1
  O  O202  1  0.73008650  0.60289400  0.85312650  1
  O  O203  1  0.76991350  0.60289400  0.64687350  1
  O  O204  1  0.14687350  0.73008650  0.39710600  1
  O  O205  1  0.17986500  0.67986500  0.67986500  1
  O  O206  1  0.64687350  0.26991350  0.10289400  1
  O  O207  1  0.67986500  0.32013500  0.82013500  1
  O  O208  1  0.32013500  0.67986500  0.82013500  1
  O  O209  1  0.89710600  0.64687350  0.73008650  1
  O  O210  1  0.35312650  0.73008650  0.10289400  1
  O  O211  1  0.82013500  0.32013500  0.67986500  1
  O  O212  1  0.85312650  0.26991350  0.39710600  1
  O  O213  1  0.23008650  0.39710600  0.64687350  1
  O  O214  1  0.26991350  0.39710600  0.85312650  1
  O  O215  1  0.85289400  0.39687350  0.98008650  1
  O  O216  1  0.39710600  0.35312650  0.76991350  1
  O  O217  1  0.98008650  0.35289400  0.89687350  1
  O  O218  1  0.51991350  0.35289400  0.60312650  1
  O  O219  1  0.89687350  0.48008650  0.85289400  1
  O  O220  1  0.42986500  0.42986500  0.07013500  1
  O  O221  1  0.39687350  0.51991350  0.64710600  1
  O  O222  1  0.35289400  0.60312650  0.51991350  1
  O  O223  1  0.57013500  0.42986500  0.92986500  1
  O  O224  1  0.42986500  0.57013500  0.92986500  1
  O  O225  1  0.60312650  0.48008650  0.64710600  1
  O  O226  1  0.57013500  0.57013500  0.07013500  1
  O  O227  1  0.10312650  0.51991350  0.85289400  1
  O  O228  1  0.48008650  0.64710600  0.60312650  1
  O  O229  1  0.01991350  0.64710600  0.89687350  1
  O  O230  1  0.60289400  0.64687350  0.76991350  1
  O  O231  1  0.10289400  0.35312650  0.73008650  1
