# generated using pymatgen
data_Li8IrO6
_symmetry_space_group_name_H-M   'P 1'
_cell_length_a   5.47116008
_cell_length_b   5.47116008
_cell_length_c   15.13234334
_cell_angle_alpha   90.00000000
_cell_angle_beta   90.00000000
_cell_angle_gamma   120.00000000
_symmetry_Int_Tables_number   1
_chemical_formula_structural   Li8IrO6
_chemical_formula_sum   'Li24 Ir3 O18'
_cell_volume   392.27954431
_cell_formula_units_Z   3
loop_
 _symmetry_equiv_pos_site_id
 _symmetry_equiv_pos_as_xyz
  1  'x, y, z'
loop_
 _atom_site_type_symbol
 _atom_site_label
 _atom_site_symmetry_multiplicity
 _atom_site_fract_x
 _atom_site_fract_y
 _atom_site_fract_z
 _atom_site_occupancy
  Li  Li0  1  0.33333333  0.66666667  0.00789367  1
  Li  Li1  1  0.68296833  0.98197067  0.21628467  1
  Li  Li2  1  0.29900233  0.31703167  0.21628467  1
  Li  Li3  1  0.01802933  0.70099767  0.21628467  1
  Li  Li4  1  0.98369833  0.35136267  0.11704867  1
  Li  Li5  1  0.36766433  0.01630167  0.11704867  1
  Li  Li6  1  0.33333333  0.66666667  0.32543967  1
  Li  Li7  1  0.64863733  0.63233567  0.11704867  1
  Li  Li8  1  0.00000000  0.00000000  0.34122700  1
  Li  Li9  1  0.34963500  0.31530400  0.54961800  1
  Li  Li10  1  0.96566900  0.65036500  0.54961800  1
  Li  Li11  1  0.68469600  0.03433100  0.54961800  1
  Li  Li12  1  0.65036500  0.68469600  0.45038200  1
  Li  Li13  1  0.03433100  0.34963500  0.45038200  1
  Li  Li14  1  0.00000000  0.00000000  0.65877300  1
  Li  Li15  1  0.31530400  0.96566900  0.45038200  1
  Li  Li16  1  0.66666667  0.33333333  0.67456033  1
  Li  Li17  1  0.01630167  0.64863733  0.88295133  1
  Li  Li18  1  0.63233567  0.98369833  0.88295133  1
  Li  Li19  1  0.35136267  0.36766433  0.88295133  1
  Li  Li20  1  0.31703167  0.01802933  0.78371533  1
  Li  Li21  1  0.70099767  0.68296833  0.78371533  1
  Li  Li22  1  0.66666667  0.33333333  0.99210633  1
  Li  Li23  1  0.98197067  0.29900233  0.78371533  1
  Ir  Ir24  1  0.00000000  0.00000000  0.00000000  1
  Ir  Ir25  1  0.66666667  0.33333333  0.33333333  1
  Ir  Ir26  1  0.33333333  0.66666667  0.66666667  1
  O  O27  1  0.65589000  0.63820000  0.25370800  1
  O  O28  1  0.30486667  0.31564333  0.07962533  1
  O  O29  1  0.01077667  0.69513333  0.07962533  1
  O  O30  1  0.98231000  0.34411000  0.25370800  1
  O  O31  1  0.36180000  0.01769000  0.25370800  1
  O  O32  1  0.68435667  0.98922333  0.07962533  1
  O  O33  1  0.32255667  0.97153333  0.58704133  1
  O  O34  1  0.97153333  0.64897667  0.41295867  1
  O  O35  1  0.67744333  0.02846667  0.41295867  1
  O  O36  1  0.64897667  0.67744333  0.58704133  1
  O  O37  1  0.02846667  0.35102333  0.58704133  1
  O  O38  1  0.35102333  0.32255667  0.41295867  1
  O  O39  1  0.98922333  0.30486667  0.92037467  1
  O  O40  1  0.63820000  0.98231000  0.74629200  1
  O  O41  1  0.34411000  0.36180000  0.74629200  1
  O  O42  1  0.31564333  0.01077667  0.92037467  1
  O  O43  1  0.69513333  0.68435667  0.92037467  1
  O  O44  1  0.01769000  0.65589000  0.74629200  1
