# generated using pymatgen
data_Pr2Ni12As7
_symmetry_space_group_name_H-M   'P 1'
_cell_length_a   9.40193290
_cell_length_b   9.40193290
_cell_length_c   3.89574300
_cell_angle_alpha   90.00000000
_cell_angle_beta   90.00000000
_cell_angle_gamma   120.00000000
_symmetry_Int_Tables_number   1
_chemical_formula_structural   Pr2Ni12As7
_chemical_formula_sum   'Pr2 Ni12 As7'
_cell_volume   298.23267625
_cell_formula_units_Z   1
loop_
 _symmetry_equiv_pos_site_id
 _symmetry_equiv_pos_as_xyz
  1  'x, y, z'
loop_
 _atom_site_type_symbol
 _atom_site_label
 _atom_site_symmetry_multiplicity
 _atom_site_fract_x
 _atom_site_fract_y
 _atom_site_fract_z
 _atom_site_occupancy
  Pr  Pr0  1  0.66666667  0.33333333  0.00000000  1
  Pr  Pr1  1  0.00000000  0.00000000  0.50000000  1
  Ni  Ni2  1  0.70719667  0.08834633  0.50000000  1
  Ni  Ni3  1  0.91165367  0.61885033  0.50000000  1
  Ni  Ni4  1  0.38114967  0.29280333  0.50000000  1
  Ni  Ni5  1  0.77393767  0.72162133  0.00000000  1
  Ni  Ni6  1  0.27837867  0.05231633  0.00000000  1
  Ni  Ni7  1  0.94768367  0.22606233  0.00000000  1
  Ni  Ni8  1  0.53997367  0.76333933  0.50000000  1
  Ni  Ni9  1  0.23666067  0.77663433  0.50000000  1
  Ni  Ni10  1  0.22336567  0.46002633  0.50000000  1
  Ni  Ni11  1  0.47917567  0.94475533  0.00000000  1
  Ni  Ni12  1  0.05524467  0.53442033  0.00000000  1
  Ni  Ni13  1  0.46557967  0.52082433  0.00000000  1
  As  As14  1  0.33333333  0.66666667  0.00000000  1
  As  As15  1  0.43473367  0.06843133  0.50000000  1
  As  As16  1  0.93156867  0.36630233  0.50000000  1
  As  As17  1  0.63369767  0.56526633  0.50000000  1
  As  As18  1  0.72956467  0.94997533  0.00000000  1
  As  As19  1  0.05002467  0.77958933  0.00000000  1
  As  As20  1  0.22041067  0.27043533  0.00000000  1
