# generated using pymatgen
data_MnFe2(PO4)3
_symmetry_space_group_name_H-M   'P 1'
_cell_length_a   8.66176440
_cell_length_b   8.66176440
_cell_length_c   20.88088572
_cell_angle_alpha   90.00000000
_cell_angle_beta   90.00000000
_cell_angle_gamma   120.00000000
_symmetry_Int_Tables_number   1
_chemical_formula_structural   MnFe2(PO4)3
_chemical_formula_sum   'Mn6 Fe12 P18 O72'
_cell_volume   1356.72641786
_cell_formula_units_Z   6
loop_
 _symmetry_equiv_pos_site_id
 _symmetry_equiv_pos_as_xyz
  1  'x, y, z'
loop_
 _atom_site_type_symbol
 _atom_site_label
 _atom_site_symmetry_multiplicity
 _atom_site_fract_x
 _atom_site_fract_y
 _atom_site_fract_z
 _atom_site_occupancy
  Mn  Mn0  1  0.00000000  0.00000000  0.00000000  1
  Mn  Mn1  1  0.33333333  0.66666667  0.16666667  1
  Mn  Mn2  1  0.66666667  0.33333333  0.33333333  1
  Mn  Mn3  1  0.00000000  0.00000000  0.50000000  1
  Mn  Mn4  1  0.33333333  0.66666667  0.66666667  1
  Mn  Mn5  1  0.66666667  0.33333333  0.83333333  1
  Fe  Fe6  1  0.33333333  0.66666667  0.52123867  1
  Fe  Fe7  1  0.33333333  0.66666667  0.31209467  1
  Fe  Fe8  1  0.33333333  0.66666667  0.02123867  1
  Fe  Fe9  1  0.33333333  0.66666667  0.81209467  1
  Fe  Fe10  1  0.00000000  0.00000000  0.85457200  1
  Fe  Fe11  1  1.00000000  0.00000000  0.64542800  1
  Fe  Fe12  1  0.00000000  0.00000000  0.35457200  1
  Fe  Fe13  1  0.00000000  0.00000000  0.14542800  1
  Fe  Fe14  1  0.66666667  0.33333333  0.18790533  1
  Fe  Fe15  1  0.66666667  0.33333333  0.97876133  1
  Fe  Fe16  1  0.66666667  0.33333333  0.68790533  1
  Fe  Fe17  1  0.66666667  0.33333333  0.47876133  1
  P  P18  1  0.70460000  0.70460000  0.25000000  1
  P  P19  1  0.29540000  0.00000000  0.25000000  1
  P  P20  1  0.00000000  0.29540000  0.25000000  1
  P  P21  1  0.66666667  0.03793333  0.08333333  1
  P  P22  1  0.37126667  0.33333333  0.08333333  1
  P  P23  1  0.96206667  0.62873333  0.08333333  1
  P  P24  1  0.37126667  0.03793333  0.58333333  1
  P  P25  1  0.96206667  0.33333333  0.58333333  1
  P  P26  1  0.66666667  0.62873333  0.58333333  1
  P  P27  1  0.33333333  0.37126667  0.41666667  1
  P  P28  1  0.03793333  0.66666667  0.41666667  1
  P  P29  1  0.62873333  0.96206667  0.41666667  1
  P  P30  1  0.03793333  0.37126667  0.91666667  1
  P  P31  1  0.62873333  0.66666667  0.91666667  1
  P  P32  1  0.33333333  0.96206667  0.91666667  1
  P  P33  1  0.00000000  0.70460000  0.75000000  1
  P  P34  1  0.70460000  0.00000000  0.75000000  1
  P  P35  1  0.29540000  0.29540000  0.75000000  1
  O  O36  1  0.53446367  0.86046533  0.35585033  1
  O  O37  1  0.32600167  0.46553633  0.35585033  1
  O  O38  1  0.68276800  0.51506900  0.25768600  1
  O  O39  1  0.13953467  0.67399833  0.35585033  1
  O  O40  1  0.80620133  0.79886967  0.18918367  1
  O  O41  1  0.51506900  0.68276800  0.24231400  1
  O  O42  1  0.48493100  0.16769900  0.25768600  1
  O  O43  1  0.31723200  0.83230100  0.24231400  1
  O  O44  1  0.67399833  0.13953467  0.14414967  1
  O  O45  1  0.16769900  0.48493100  0.24231400  1
  O  O46  1  0.83436567  0.01610133  0.07564733  1
  O  O47  1  0.46553633  0.32600167  0.14414967  1
  O  O48  1  0.20113033  0.00733167  0.18918367  1
  O  O49  1  0.83230100  0.31723200  0.25768600  1
  O  O50  1  0.49896767  0.84840233  0.09101933  1
  O  O51  1  0.99266833  0.19379867  0.18918367  1
  O  O52  1  0.34943467  0.50103233  0.09101933  1
  O  O53  1  0.18173567  0.16563433  0.07564733  1
  O  O54  1  0.15159767  0.65056533  0.09101933  1
  O  O55  1  0.86046533  0.53446367  0.14414967  1
  O  O56  1  0.52713200  0.65933500  0.97748300  1
  O  O57  1  0.98389867  0.81826433  0.07564733  1
  O  O58  1  0.34066500  0.86779700  0.97748300  1
  O  O59  1  0.13220300  0.47286800  0.97748300  1
  O  O60  1  0.20113033  0.19379867  0.68918367  1
  O  O61  1  0.99266833  0.79886967  0.68918367  1
  O  O62  1  0.34943467  0.84840233  0.59101933  1
  O  O63  1  0.80620133  0.00733167  0.68918367  1
  O  O64  1  0.47286800  0.13220300  0.52251700  1
  O  O65  1  0.18173567  0.01610133  0.57564733  1
  O  O66  1  0.15159767  0.50103233  0.59101933  1
  O  O67  1  0.98389867  0.16563433  0.57564733  1
  O  O68  1  0.34066500  0.47286800  0.47748300  1
  O  O69  1  0.83436567  0.81826433  0.57564733  1
  O  O70  1  0.50103233  0.34943467  0.40898067  1
  O  O71  1  0.13220300  0.65933500  0.47748300  1
  O  O72  1  0.86779700  0.34066500  0.52251700  1
  O  O73  1  0.49896767  0.65056533  0.59101933  1
  O  O74  1  0.16563433  0.18173567  0.42435267  1
  O  O75  1  0.65933500  0.52713200  0.52251700  1
  O  O76  1  0.01610133  0.83436567  0.42435267  1
  O  O77  1  0.84840233  0.49896767  0.40898067  1
  O  O78  1  0.81826433  0.98389867  0.42435267  1
  O  O79  1  0.52713200  0.86779700  0.47748300  1
  O  O80  1  0.19379867  0.99266833  0.31081633  1
  O  O81  1  0.65056533  0.15159767  0.40898067  1
  O  O82  1  0.00733167  0.20113033  0.31081633  1
  O  O83  1  0.79886967  0.80620133  0.31081633  1
  O  O84  1  0.86779700  0.52713200  0.02251700  1
  O  O85  1  0.65933500  0.13220300  0.02251700  1
  O  O86  1  0.01610133  0.18173567  0.92435267  1
  O  O87  1  0.47286800  0.34066500  0.02251700  1
  O  O88  1  0.13953467  0.46553633  0.85585033  1
  O  O89  1  0.84840233  0.34943467  0.90898067  1
  O  O90  1  0.81826433  0.83436567  0.92435267  1
  O  O91  1  0.65056533  0.49896767  0.90898067  1
  O  O92  1  0.00733167  0.80620133  0.81081633  1
  O  O93  1  0.50103233  0.15159767  0.90898067  1
  O  O94  1  0.16769900  0.68276800  0.74231400  1
  O  O95  1  0.79886967  0.99266833  0.81081633  1
  O  O96  1  0.53446367  0.67399833  0.85585033  1
  O  O97  1  0.16563433  0.98389867  0.92435267  1
  O  O98  1  0.83230100  0.51506900  0.75768600  1
  O  O99  1  0.32600167  0.86046533  0.85585033  1
  O  O100  1  0.68276800  0.16769900  0.75768600  1
  O  O101  1  0.51506900  0.83230100  0.74231400  1
  O  O102  1  0.48493100  0.31723200  0.75768600  1
  O  O103  1  0.19379867  0.20113033  0.81081633  1
  O  O104  1  0.86046533  0.32600167  0.64414967  1
  O  O105  1  0.31723200  0.48493100  0.74231400  1
  O  O106  1  0.67399833  0.53446367  0.64414967  1
  O  O107  1  0.46553633  0.13953467  0.64414967  1
