# generated using pymatgen
data_Co3Ni3(TeO8)2
_symmetry_space_group_name_H-M   'P 1'
_cell_length_a   10.17072800
_cell_length_b   5.72122400
_cell_length_c   9.13350607
_cell_angle_alpha   90.00000000
_cell_angle_beta   92.95396971
_cell_angle_gamma   90.00000000
_symmetry_Int_Tables_number   1
_chemical_formula_structural   Co3Ni3(TeO8)2
_chemical_formula_sum   'Co6 Ni6 Te4 O32'
_cell_volume   530.76351870
_cell_formula_units_Z   2
loop_
 _symmetry_equiv_pos_site_id
 _symmetry_equiv_pos_as_xyz
  1  'x, y, z'
loop_
 _atom_site_type_symbol
 _atom_site_label
 _atom_site_symmetry_multiplicity
 _atom_site_fract_x
 _atom_site_fract_y
 _atom_site_fract_z
 _atom_site_occupancy
  Co  Co0  1  0.58965400  0.24632000  0.21511700  1
  Co  Co1  1  0.58965400  0.75368000  0.21511700  1
  Co  Co2  1  0.67060800  0.50000000  0.71829900  1
  Co  Co3  1  0.08965400  0.74632000  0.21511700  1
  Co  Co4  1  0.08965400  0.25368000  0.21511700  1
  Co  Co5  1  0.17060800  0.00000000  0.71829900  1
  Ni  Ni6  1  0.83345400  0.00000000  0.20947000  1
  Ni  Ni7  1  0.91695300  0.74875700  0.71126700  1
  Ni  Ni8  1  0.91695300  0.25124300  0.71126700  1
  Ni  Ni9  1  0.33345400  0.50000000  0.20947000  1
  Ni  Ni10  1  0.41695300  0.24875700  0.71126700  1
  Ni  Ni11  1  0.41695300  0.75124300  0.71126700  1
  Te  Te12  1  0.66835600  0.00000000  0.49124200  1
  Te  Te13  1  0.83382500  0.50000000  0.99125200  1
  Te  Te14  1  0.16835600  0.50000000  0.49124200  1
  Te  Te15  1  0.33382500  0.00000000  0.99125200  1
  O  O16  1  0.58828050  0.25023950  0.59477900  1
  O  O17  1  0.51922000  0.00000000  0.33343700  1
  O  O18  1  0.64986800  0.00000000  0.10928600  1
  O  O19  1  0.51522900  0.50000000  0.30226500  1
  O  O20  1  0.50989700  0.50000000  0.80204900  1
  O  O21  1  0.58828050  0.74976050  0.59477900  1
  O  O22  1  0.73273300  0.23268100  0.34537300  1
  O  O23  1  0.73273300  0.76731900  0.34537300  1
  O  O24  1  0.66689800  0.50000000  0.10024800  1
  O  O25  1  0.84116600  0.00000000  0.58986200  1
  O  O26  1  0.74739450  0.72056850  0.84612800  1
  O  O27  1  0.74739450  0.27943150  0.84612800  1
  O  O28  1  0.82467700  0.50000000  0.61867500  1
  O  O29  1  0.92215550  0.75334050  0.09141300  1
  O  O30  1  0.97806200  0.50000000  0.84172000  1
  O  O31  1  0.92215550  0.24665950  0.09141300  1
  O  O32  1  0.08828050  0.75023950  0.59477900  1
  O  O33  1  0.01922000  0.50000000  0.33343700  1
  O  O34  1  0.14986800  0.50000000  0.10928600  1
  O  O35  1  0.01522900  0.00000000  0.30226500  1
  O  O36  1  0.00989700  0.00000000  0.80204900  1
  O  O37  1  0.08828050  0.24976050  0.59477900  1
  O  O38  1  0.23273300  0.73268100  0.34537300  1
  O  O39  1  0.23273300  0.26731900  0.34537300  1
  O  O40  1  0.16689800  0.00000000  0.10024800  1
  O  O41  1  0.34116600  0.50000000  0.58986200  1
  O  O42  1  0.24739450  0.22056850  0.84612800  1
  O  O43  1  0.24739450  0.77943150  0.84612800  1
  O  O44  1  0.32467700  0.00000000  0.61867500  1
  O  O45  1  0.42215550  0.25334050  0.09141300  1
  O  O46  1  0.47806200  0.00000000  0.84172000  1
  O  O47  1  0.42215550  0.74665950  0.09141300  1
