# generated using pymatgen
data_Li4Mn3Cu3(WO8)2
_symmetry_space_group_name_H-M   'P 1'
_cell_length_a   10.36634000
_cell_length_b   5.90394200
_cell_length_c   9.90704677
_cell_angle_alpha   90.00000000
_cell_angle_beta   94.59097504
_cell_angle_gamma   90.00000000
_symmetry_Int_Tables_number   1
_chemical_formula_structural   Li4Mn3Cu3(WO8)2
_chemical_formula_sum   'Li8 Mn6 Cu6 W4 O32'
_cell_volume   604.38832995
_cell_formula_units_Z   2
loop_
 _symmetry_equiv_pos_site_id
 _symmetry_equiv_pos_as_xyz
  1  'x, y, z'
loop_
 _atom_site_type_symbol
 _atom_site_label
 _atom_site_symmetry_multiplicity
 _atom_site_fract_x
 _atom_site_fract_y
 _atom_site_fract_z
 _atom_site_occupancy
  Li  Li0  1  0.82937400  0.50000000  0.91412900  1
  Li  Li1  1  0.50294400  0.50000000  0.98656100  1
  Li  Li2  1  0.50102100  0.50000000  0.47971500  1
  Li  Li3  1  0.65430200  0.00000000  0.40780900  1
  Li  Li4  1  0.32937400  0.00000000  0.91412900  1
  Li  Li5  1  0.00294400  0.00000000  0.98656100  1
  Li  Li6  1  0.00102100  0.00000000  0.47971500  1
  Li  Li7  1  0.15430200  0.50000000  0.40780900  1
  Mn  Mn8  1  0.67177900  0.50000000  0.21659000  1
  Mn  Mn9  1  0.58542650  0.75219650  0.71323900  1
  Mn  Mn10  1  0.58542650  0.24780350  0.71323900  1
  Mn  Mn11  1  0.17177900  0.00000000  0.21659000  1
  Mn  Mn12  1  0.08542650  0.25219650  0.71323900  1
  Mn  Mn13  1  0.08542650  0.74780350  0.71323900  1
  Cu  Cu14  1  0.91707000  0.25165500  0.20976100  1
  Cu  Cu15  1  0.91707000  0.74834500  0.20976100  1
  Cu  Cu16  1  0.83173300  0.00000000  0.71288100  1
  Cu  Cu17  1  0.41707000  0.75165500  0.20976100  1
  Cu  Cu18  1  0.41707000  0.24834500  0.20976100  1
  Cu  Cu19  1  0.33173300  0.50000000  0.71288100  1
  W  W20  1  0.82903000  0.50000000  0.48430100  1
  W  W21  1  0.66701100  0.00000000  0.98806000  1
  W  W22  1  0.32903000  0.00000000  0.48430100  1
  W  W23  1  0.16701100  0.50000000  0.98806000  1
  O  O24  1  0.92066650  0.25747550  0.57978600  1
  O  O25  1  0.96883100  0.50000000  0.35342700  1
  O  O26  1  0.82624400  0.50000000  0.12359700  1
  O  O27  1  0.50762100  0.50000000  0.29254500  1
  O  O28  1  0.50528200  0.50000000  0.79686400  1
  O  O29  1  0.92066650  0.74252450  0.57978600  1
  O  O30  1  0.73819850  0.28588150  0.35175000  1
  O  O31  1  0.73819850  0.71411850  0.35175000  1
  O  O32  1  0.83971400  0.00000000  0.07876500  1
  O  O33  1  0.68036400  0.50000000  0.58825500  1
  O  O34  1  0.73127550  0.77205250  0.85436600  1
  O  O35  1  0.73127550  0.22794750  0.85436600  1
  O  O36  1  0.66113600  0.00000000  0.62035200  1
  O  O37  1  0.60656750  0.74749450  0.09073000  1
  O  O38  1  0.51174400  0.00000000  0.86579400  1
  O  O39  1  0.60656750  0.25250550  0.09073000  1
  O  O40  1  0.42066650  0.75747550  0.57978600  1
  O  O41  1  0.46883100  0.00000000  0.35342700  1
  O  O42  1  0.32624400  0.00000000  0.12359700  1
  O  O43  1  0.00762100  0.00000000  0.29254500  1
  O  O44  1  0.00528200  0.00000000  0.79686400  1
  O  O45  1  0.42066650  0.24252450  0.57978600  1
  O  O46  1  0.23819850  0.78588150  0.35175000  1
  O  O47  1  0.23819850  0.21411850  0.35175000  1
  O  O48  1  0.33971400  0.50000000  0.07876500  1
  O  O49  1  0.18036400  0.00000000  0.58825500  1
  O  O50  1  0.23127550  0.27205250  0.85436600  1
  O  O51  1  0.23127550  0.72794750  0.85436600  1
  O  O52  1  0.16113600  0.50000000  0.62035200  1
  O  O53  1  0.10656750  0.24749450  0.09073000  1
  O  O54  1  0.01174400  0.50000000  0.86579400  1
  O  O55  1  0.10656750  0.75250550  0.09073000  1
