# generated using pymatgen
data_LiFeSiO4
_symmetry_space_group_name_H-M   'P 1'
_cell_length_a   14.03270052
_cell_length_b   14.03270052
_cell_length_c   9.29192694
_cell_angle_alpha   90.00000000
_cell_angle_beta   90.00000000
_cell_angle_gamma   120.00000000
_symmetry_Int_Tables_number   1
_chemical_formula_structural   LiFeSiO4
_chemical_formula_sum   'Li18 Fe18 Si18 O72'
_cell_volume   1584.59737486
_cell_formula_units_Z   18
loop_
 _symmetry_equiv_pos_site_id
 _symmetry_equiv_pos_as_xyz
  1  'x, y, z'
loop_
 _atom_site_type_symbol
 _atom_site_label
 _atom_site_symmetry_multiplicity
 _atom_site_fract_x
 _atom_site_fract_y
 _atom_site_fract_z
 _atom_site_occupancy
  Li  Li0  1  0.68068633  0.53308467  0.40607667  1
  Li  Li1  1  0.53308467  0.85239833  0.59392333  1
  Li  Li2  1  0.14760167  0.68068633  0.59392333  1
  Li  Li3  1  0.85239833  0.31931367  0.40607667  1
  Li  Li4  1  0.46691533  0.14760167  0.40607667  1
  Li  Li5  1  0.31931367  0.46691533  0.59392333  1
  Li  Li6  1  0.34735300  0.86641800  0.73941000  1
  Li  Li7  1  0.19975133  0.18573167  0.92725667  1
  Li  Li8  1  0.81426833  0.01401967  0.92725667  1
  Li  Li9  1  0.51906500  0.65264700  0.73941000  1
  Li  Li10  1  0.13358200  0.48093500  0.73941000  1
  Li  Li11  1  0.98598033  0.80024867  0.92725667  1
  Li  Li12  1  0.01401967  0.19975133  0.07274333  1
  Li  Li13  1  0.86641800  0.51906500  0.26059000  1
  Li  Li14  1  0.48093500  0.34735300  0.26059000  1
  Li  Li15  1  0.18573167  0.98598033  0.07274333  1
  Li  Li16  1  0.80024867  0.81426833  0.07274333  1
  Li  Li17  1  0.65264700  0.13358200  0.26059000  1
  Fe  Fe18  1  0.78391600  0.80159300  0.40811600  1
  Fe  Fe19  1  0.98232300  0.78391600  0.59188400  1
  Fe  Fe20  1  0.80159300  0.01767700  0.59188400  1
  Fe  Fe21  1  0.19840700  0.98232300  0.40811600  1
  Fe  Fe22  1  0.01767700  0.21608400  0.40811600  1
  Fe  Fe23  1  0.21608400  0.19840700  0.59188400  1
  Fe  Fe24  1  0.45058267  0.13492633  0.74144933  1
  Fe  Fe25  1  0.64898967  0.11724933  0.92521733  1
  Fe  Fe26  1  0.46825967  0.35101033  0.92521733  1
  Fe  Fe27  1  0.86507367  0.31565633  0.74144933  1
  Fe  Fe28  1  0.68434367  0.54941733  0.74144933  1
  Fe  Fe29  1  0.88275067  0.53174033  0.92521733  1
  Fe  Fe30  1  0.11724933  0.46825967  0.07478267  1
  Fe  Fe31  1  0.31565633  0.45058267  0.25855067  1
  Fe  Fe32  1  0.13492633  0.68434367  0.25855067  1
  Fe  Fe33  1  0.53174033  0.64898967  0.07478267  1
  Fe  Fe34  1  0.35101033  0.88275067  0.07478267  1
  Fe  Fe35  1  0.54941733  0.86507367  0.25855067  1
  Si  Si36  1  0.78699267  0.80489333  0.75289633  1
  Si  Si37  1  0.98209933  0.78699267  0.24710367  1
  Si  Si38  1  0.80489333  0.01790067  0.24710367  1
  Si  Si39  1  0.19510667  0.98209933  0.75289633  1
  Si  Si40  1  0.01790067  0.21300733  0.75289633  1
  Si  Si41  1  0.21300733  0.19510667  0.24710367  1
  Si  Si42  1  0.45365933  0.13822667  0.08622967  1
  Si  Si43  1  0.64876600  0.12032600  0.58043700  1
  Si  Si44  1  0.47156000  0.35123400  0.58043700  1
  Si  Si45  1  0.86177333  0.31543267  0.08622967  1
  Si  Si46  1  0.68456733  0.54634067  0.08622967  1
  Si  Si47  1  0.87967400  0.52844000  0.58043700  1
  Si  Si48  1  0.12032600  0.47156000  0.41956300  1
  Si  Si49  1  0.31543267  0.45365933  0.91377033  1
  Si  Si50  1  0.13822667  0.68456733  0.91377033  1
  Si  Si51  1  0.52844000  0.64876600  0.41956300  1
  Si  Si52  1  0.35123400  0.87967400  0.41956300  1
  Si  Si53  1  0.54634067  0.86177333  0.91377033  1
  O  O54  1  0.41575033  0.87709867  0.55791267  1
  O  O55  1  0.87709867  0.46134833  0.44208733  1
  O  O56  1  0.65436733  0.66654167  0.40905067  1
  O  O57  1  0.66654167  0.01217433  0.59094933  1
  O  O58  1  0.78900100  0.89229200  0.25930800  1
  O  O59  1  0.79006200  0.87156300  0.59582000  1
  O  O60  1  0.98782567  0.65436733  0.59094933  1
  O  O61  1  0.91849900  0.79006200  0.40418000  1
  O  O62  1  0.89670900  0.78900100  0.74069200  1
  O  O63  1  0.89229200  0.10329100  0.74069200  1
  O  O64  1  0.87156300  0.08150100  0.40418000  1
  O  O65  1  0.53865167  0.41575033  0.44208733  1
  O  O66  1  0.46134833  0.58424967  0.55791267  1
  O  O67  1  0.12843700  0.91849900  0.59582000  1
  O  O68  1  0.10770800  0.89670900  0.25930800  1
  O  O69  1  0.10329100  0.21099900  0.25930800  1
  O  O70  1  0.08150100  0.20993800  0.59582000  1
  O  O71  1  0.01217433  0.34563267  0.40905067  1
  O  O72  1  0.20993800  0.12843700  0.40418000  1
  O  O73  1  0.21099900  0.10770800  0.74069200  1
  O  O74  1  0.33345833  0.98782567  0.40905067  1
  O  O75  1  0.34563267  0.33345833  0.59094933  1
  O  O76  1  0.12290133  0.53865167  0.55791267  1
  O  O77  1  0.58424967  0.12290133  0.44208733  1
  O  O78  1  0.08241700  0.21043200  0.89124600  1
  O  O79  1  0.54376533  0.79468167  0.77542067  1
  O  O80  1  0.32103400  0.99987500  0.74238400  1
  O  O81  1  0.33320833  0.34550767  0.92428267  1
  O  O82  1  0.45566767  0.22562533  0.59264133  1
  O  O83  1  0.45672867  0.20489633  0.92915333  1
  O  O84  1  0.65449233  0.98770067  0.92428267  1
  O  O85  1  0.58516567  0.12339533  0.73751333  1
  O  O86  1  0.56337567  0.12233433  0.07402533  1
  O  O87  1  0.55895867  0.43662433  0.07402533  1
  O  O88  1  0.53822967  0.41483433  0.73751333  1
  O  O89  1  0.20531833  0.74908367  0.77542067  1
  O  O90  1  0.12801500  0.91758300  0.89124600  1
  O  O91  1  0.79510367  0.25183233  0.92915333  1
  O  O92  1  0.77437467  0.23004233  0.59264133  1
  O  O93  1  0.76995767  0.54433233  0.59264133  1
  O  O94  1  0.74816767  0.54327133  0.92915333  1
  O  O95  1  0.67884100  0.67896600  0.74238400  1
  O  O96  1  0.87660467  0.46177033  0.73751333  1
  O  O97  1  0.87766567  0.44104133  0.07402533  1
  O  O98  1  0.00012500  0.32115900  0.74238400  1
  O  O99  1  0.01229933  0.66679167  0.92428267  1
  O  O100  1  0.78956800  0.87198500  0.89124600  1
  O  O101  1  0.25091633  0.45623467  0.77542067  1
  O  O102  1  0.74908367  0.54376533  0.22457933  1
  O  O103  1  0.21043200  0.12801500  0.10875400  1
  O  O104  1  0.98770067  0.33320833  0.07571733  1
  O  O105  1  0.99987500  0.67884100  0.25761600  1
  O  O106  1  0.12233433  0.55895867  0.92597467  1
  O  O107  1  0.12339533  0.53822967  0.26248667  1
  O  O108  1  0.32115900  0.32103400  0.25761600  1
  O  O109  1  0.25183233  0.45672867  0.07084667  1
  O  O110  1  0.23004233  0.45566767  0.40735867  1
  O  O111  1  0.22562533  0.76995767  0.40735867  1
  O  O112  1  0.20489633  0.74816767  0.07084667  1
  O  O113  1  0.87198500  0.08241700  0.10875400  1
  O  O114  1  0.79468167  0.25091633  0.22457933  1
  O  O115  1  0.46177033  0.58516567  0.26248667  1
  O  O116  1  0.44104133  0.56337567  0.92597467  1
  O  O117  1  0.43662433  0.87766567  0.92597467  1
  O  O118  1  0.41483433  0.87660467  0.26248667  1
  O  O119  1  0.34550767  0.01229933  0.07571733  1
  O  O120  1  0.54327133  0.79510367  0.07084667  1
  O  O121  1  0.54433233  0.77437467  0.40735867  1
  O  O122  1  0.66679167  0.65449233  0.07571733  1
  O  O123  1  0.67896600  0.00012500  0.25761600  1
  O  O124  1  0.45623467  0.20531833  0.22457933  1
  O  O125  1  0.91758300  0.78956800  0.10875400  1
