# generated using pymatgen
data_VCr2Ni3(PO4)6
_symmetry_space_group_name_H-M   'P 1'
_cell_length_a   8.61729606
_cell_length_b   8.61729606
_cell_length_c   20.17468060
_cell_angle_alpha   90.00000000
_cell_angle_beta   90.00000000
_cell_angle_gamma   120.00000000
_symmetry_Int_Tables_number   1
_chemical_formula_structural   VCr2Ni3(PO4)6
_chemical_formula_sum   'V3 Cr6 Ni9 P18 O72'
_cell_volume   1297.41623364
_cell_formula_units_Z   3
loop_
 _symmetry_equiv_pos_site_id
 _symmetry_equiv_pos_as_xyz
  1  'x, y, z'
loop_
 _atom_site_type_symbol
 _atom_site_label
 _atom_site_symmetry_multiplicity
 _atom_site_fract_x
 _atom_site_fract_y
 _atom_site_fract_z
 _atom_site_occupancy
  V  V0  1  0.33333333  0.66666667  0.81285567  1
  V  V1  1  0.00000000  0.00000000  0.14618900  1
  V  V2  1  0.66666667  0.33333333  0.47952233  1
  Cr  Cr3  1  0.33333333  0.66666667  0.66566667  1
  Cr  Cr4  1  0.33333333  0.66666667  0.16437967  1
  Cr  Cr5  1  0.00000000  0.00000000  0.99900000  1
  Cr  Cr6  1  0.00000000  0.00000000  0.49771300  1
  Cr  Cr7  1  0.66666667  0.33333333  0.33233333  1
  Cr  Cr8  1  0.66666667  0.33333333  0.83104633  1
  Ni  Ni9  1  0.33333333  0.66666667  0.30893567  1
  Ni  Ni10  1  0.33333333  0.66666667  0.52210867  1
  Ni  Ni11  1  0.33333333  0.66666667  0.02422067  1
  Ni  Ni12  1  0.00000000  0.00000000  0.64226900  1
  Ni  Ni13  1  0.00000000  0.00000000  0.85544200  1
  Ni  Ni14  1  0.00000000  0.00000000  0.35755400  1
  Ni  Ni15  1  0.66666667  0.33333333  0.97560233  1
  Ni  Ni16  1  0.66666667  0.33333333  0.18877533  1
  Ni  Ni17  1  0.66666667  0.33333333  0.69088733  1
  P  P18  1  0.00084667  0.29962033  0.25181433  1
  P  P19  1  0.70037967  0.70122633  0.25181433  1
  P  P20  1  0.29877367  0.99915333  0.25181433  1
  P  P21  1  0.36977633  0.33369567  0.08329467  1
  P  P22  1  0.96391933  0.63022367  0.08329467  1
  P  P23  1  0.66630433  0.03608067  0.08329467  1
  P  P24  1  0.66751333  0.63295367  0.58514767  1
  P  P25  1  0.36704633  0.03455967  0.58514767  1
  P  P26  1  0.96544033  0.33248667  0.58514767  1
  P  P27  1  0.03644300  0.66702900  0.41662800  1
  P  P28  1  0.63058600  0.96355700  0.41662800  1
  P  P29  1  0.33297100  0.36941400  0.41662800  1
  P  P30  1  0.33418000  0.96628700  0.91848100  1
  P  P31  1  0.03371300  0.36789300  0.91848100  1
  P  P32  1  0.63210700  0.66582000  0.91848100  1
  P  P33  1  0.70310967  0.00036233  0.74996133  1
  P  P34  1  0.29725267  0.29689033  0.74996133  1
  P  P35  1  0.99963767  0.70274733  0.74996133  1
  O  O36  1  0.12496767  0.47369533  0.97916033  1
  O  O37  1  0.52630467  0.65127233  0.97916033  1
  O  O38  1  0.34872767  0.87503233  0.97916033  1
  O  O39  1  0.83487500  0.32316200  0.26086200  1
  O  O40  1  0.31698100  0.84126400  0.85642400  1
  O  O41  1  0.16588733  0.48140767  0.23332467  1
  O  O42  1  0.67683800  0.51171300  0.26086200  1
  O  O43  1  0.51859233  0.68447967  0.23332467  1
  O  O44  1  0.45576533  0.31834067  0.14619667  1
  O  O45  1  0.31552033  0.83411267  0.23332467  1
  O  O46  1  0.16913867  0.16251933  0.07491633  1
  O  O47  1  0.86257533  0.54423467  0.14619667  1
  O  O48  1  0.15873600  0.47571700  0.85642400  1
  O  O49  1  0.48828700  0.16512500  0.26086200  1
  O  O50  1  0.33795833  0.49506067  0.09495967  1
  O  O51  1  0.52428300  0.68301900  0.85642400  1
  O  O52  1  0.15710233  0.66204167  0.09495967  1
  O  O53  1  0.99338067  0.83086133  0.07491633  1
  O  O54  1  0.50493933  0.84289767  0.09495967  1
  O  O55  1  0.68165933  0.13742467  0.14619667  1
  O  O56  1  0.83748067  0.00661933  0.07491633  1
  O  O57  1  0.33252000  0.45986900  0.35299200  1
  O  O58  1  0.12734900  0.66748000  0.35299200  1
  O  O59  1  0.54013100  0.87265100  0.35299200  1
  O  O60  1  0.79163433  0.80702867  0.31249367  1
  O  O61  1  0.19297133  0.98460567  0.31249367  1
  O  O62  1  0.01539433  0.20836567  0.31249367  1
  O  O63  1  0.50154167  0.65649533  0.59419533  1
  O  O64  1  0.98364767  0.17459733  0.18975733  1
  O  O65  1  0.83255400  0.81474100  0.56665800  1
  O  O66  1  0.34350467  0.84504633  0.59419533  1
  O  O67  1  0.18525900  0.01781300  0.56665800  1
  O  O68  1  0.12243200  0.65167400  0.47953000  1
  O  O69  1  0.98218700  0.16744600  0.56665800  1
  O  O70  1  0.83580533  0.49585267  0.40824967  1
  O  O71  1  0.52924200  0.87756800  0.47953000  1
  O  O72  1  0.82540267  0.80905033  0.18975733  1
  O  O73  1  0.15495367  0.49845833  0.59419533  1
  O  O74  1  0.00462500  0.82839400  0.42829300  1
  O  O75  1  0.19094967  0.01635233  0.18975733  1
  O  O76  1  0.82376900  0.99537500  0.42829300  1
  O  O77  1  0.66004733  0.16419467  0.40824967  1
  O  O78  1  0.17160600  0.17623100  0.42829300  1
  O  O79  1  0.34832600  0.47075800  0.47953000  1
  O  O80  1  0.50414733  0.33995267  0.40824967  1
  O  O81  1  0.99918667  0.79320233  0.68632533  1
  O  O82  1  0.79401567  0.00081333  0.68632533  1
  O  O83  1  0.20679767  0.20598433  0.68632533  1
  O  O84  1  0.45830100  0.14036200  0.64582700  1
  O  O85  1  0.85963800  0.31793900  0.64582700  1
  O  O86  1  0.68206100  0.54169900  0.64582700  1
  O  O87  1  0.16820833  0.98982867  0.92752867  1
  O  O88  1  0.65031433  0.50793067  0.52309067  1
  O  O89  1  0.49922067  0.14807433  0.89999133  1
  O  O90  1  0.01017133  0.17837967  0.92752867  1
  O  O91  1  0.85192567  0.35114633  0.89999133  1
  O  O92  1  0.78909867  0.98500733  0.81286333  1
  O  O93  1  0.64885367  0.50077933  0.89999133  1
  O  O94  1  0.50247200  0.82918600  0.74158300  1
  O  O95  1  0.19590867  0.21090133  0.81286333  1
  O  O96  1  0.49206933  0.14238367  0.52309067  1
  O  O97  1  0.82162033  0.83179167  0.92752867  1
  O  O98  1  0.67129167  0.16172733  0.76162633  1
  O  O99  1  0.85761633  0.34968567  0.52309067  1
  O  O100  1  0.49043567  0.32870833  0.76162633  1
  O  O101  1  0.32671400  0.49752800  0.74158300  1
  O  O102  1  0.83827267  0.50956433  0.76162633  1
  O  O103  1  0.01499267  0.80409133  0.81286333  1
  O  O104  1  0.17081400  0.67328600  0.74158300  1
  O  O105  1  0.66585333  0.12653567  0.01965867  1
  O  O106  1  0.46068233  0.33414667  0.01965867  1
  O  O107  1  0.87346433  0.53931767  0.01965867  1
