# generated using pymatgen
data_LiCr3(P3O10)2
_symmetry_space_group_name_H-M   'P 1'
_cell_length_a   10.20118600
_cell_length_b   13.69721200
_cell_length_c   12.59326700
_cell_angle_alpha   90.00000000
_cell_angle_beta   90.00000000
_cell_angle_gamma   90.00000000
_symmetry_Int_Tables_number   1
_chemical_formula_structural   LiCr3(P3O10)2
_chemical_formula_sum   'Li4 Cr12 P24 O80'
_cell_volume   1759.62958457
_cell_formula_units_Z   4
loop_
 _symmetry_equiv_pos_site_id
 _symmetry_equiv_pos_as_xyz
  1  'x, y, z'
loop_
 _atom_site_type_symbol
 _atom_site_label
 _atom_site_symmetry_multiplicity
 _atom_site_fract_x
 _atom_site_fract_y
 _atom_site_fract_z
 _atom_site_occupancy
  Li  Li0  1  0.10745700  0.00000000  0.00000000  1
  Li  Li1  1  0.60745700  0.00000000  0.50000000  1
  Li  Li2  1  0.60745700  0.50000000  0.00000000  1
  Li  Li3  1  0.10745700  0.50000000  0.50000000  1
  Cr  Cr4  1  0.38861300  0.00000000  0.00000000  1
  Cr  Cr5  1  0.54700800  0.22297200  0.78254100  1
  Cr  Cr6  1  0.54700800  0.27702800  0.28254100  1
  Cr  Cr7  1  0.54700800  0.77702800  0.21745900  1
  Cr  Cr8  1  0.54700800  0.72297200  0.71745900  1
  Cr  Cr9  1  0.88861300  0.00000000  0.50000000  1
  Cr  Cr10  1  0.88861300  0.50000000  0.00000000  1
  Cr  Cr11  1  0.04700800  0.72297200  0.78254100  1
  Cr  Cr12  1  0.04700800  0.77702800  0.28254100  1
  Cr  Cr13  1  0.04700800  0.27702800  0.21745900  1
  Cr  Cr14  1  0.04700800  0.22297200  0.71745900  1
  Cr  Cr15  1  0.38861300  0.50000000  0.50000000  1
  P  P16  1  0.26864650  0.13497850  0.30401100  1
  P  P17  1  0.26864650  0.86502150  0.69598900  1
  P  P18  1  0.29593850  0.06815350  0.78351100  1
  P  P19  1  0.29593850  0.93184650  0.21648900  1
  P  P20  1  0.56257650  0.80893150  0.94919900  1
  P  P21  1  0.56257650  0.69106850  0.44919900  1
  P  P22  1  0.56257650  0.30893150  0.55080100  1
  P  P23  1  0.56257650  0.19106850  0.05080100  1
  P  P24  1  0.76864650  0.13497850  0.19598900  1
  P  P25  1  0.76864650  0.86502150  0.80401100  1
  P  P26  1  0.79593850  0.06815350  0.71648900  1
  P  P27  1  0.79593850  0.93184650  0.28351100  1
  P  P28  1  0.76864650  0.63497850  0.30401100  1
  P  P29  1  0.76864650  0.36502150  0.69598900  1
  P  P30  1  0.79593850  0.56815350  0.78351100  1
  P  P31  1  0.79593850  0.43184650  0.21648900  1
  P  P32  1  0.06257650  0.30893150  0.94919900  1
  P  P33  1  0.06257650  0.19106850  0.44919900  1
  P  P34  1  0.06257650  0.80893150  0.55080100  1
  P  P35  1  0.06257650  0.69106850  0.05080100  1
  P  P36  1  0.26864650  0.63497850  0.19598900  1
  P  P37  1  0.26864650  0.36502150  0.80401100  1
  P  P38  1  0.29593850  0.56815350  0.71648900  1
  P  P39  1  0.29593850  0.43184650  0.28351100  1
  O  O40  1  0.16358550  0.84250950  0.77711400  1
  O  O41  1  0.16358550  0.15749050  0.22288600  1
  O  O42  1  0.20649900  0.14305600  0.73706800  1
  O  O43  1  0.20649900  0.85694400  0.26293200  1
  O  O44  1  0.20862250  0.85149650  0.57828000  1
  O  O45  1  0.20862250  0.14850350  0.42172000  1
  O  O46  1  0.24778350  0.02484750  0.89288900  1
  O  O47  1  0.24778350  0.97515250  0.10711100  1
  O  O48  1  0.29794800  0.02016300  0.30207200  1
  O  O49  1  0.29794800  0.97983700  0.69792800  1
  O  O50  1  0.39682300  0.31352000  0.80131600  1
  O  O51  1  0.39682300  0.81352000  0.69868400  1
  O  O52  1  0.39682300  0.68648000  0.19868400  1
  O  O53  1  0.39682300  0.18648000  0.30131600  1
  O  O54  1  0.43808400  0.90016900  0.20240900  1
  O  O55  1  0.43808400  0.09983100  0.79759100  1
  O  O56  1  0.43808400  0.59983100  0.70240900  1
  O  O57  1  0.43808400  0.40016900  0.29759100  1
  O  O58  1  0.46923050  0.89677550  0.92713000  1
  O  O59  1  0.46923050  0.60322450  0.42713000  1
  O  O60  1  0.46923050  0.39677550  0.57287000  1
  O  O61  1  0.46923050  0.10322450  0.07287000  1
  O  O62  1  0.52996450  0.77519250  0.37455300  1
  O  O63  1  0.52996450  0.27519250  0.12544700  1
  O  O64  1  0.52996450  0.22480750  0.62544700  1
  O  O65  1  0.52996450  0.72480750  0.87455300  1
  O  O66  1  0.57058200  0.72404000  0.56184100  1
  O  O67  1  0.57058200  0.22404000  0.93815900  1
  O  O68  1  0.57058200  0.27596000  0.43815900  1
  O  O69  1  0.57058200  0.77596000  0.06184100  1
  O  O70  1  0.66358550  0.15749050  0.27711400  1
  O  O71  1  0.66358550  0.84250950  0.72288600  1
  O  O72  1  0.70649900  0.14305600  0.76293200  1
  O  O73  1  0.70649900  0.85694400  0.23706800  1
  O  O74  1  0.70862250  0.85149650  0.92172000  1
  O  O75  1  0.70862250  0.14850350  0.07828000  1
  O  O76  1  0.74778350  0.97515250  0.39288900  1
  O  O77  1  0.74778350  0.02484750  0.60711100  1
  O  O78  1  0.79794800  0.97983700  0.80207200  1
  O  O79  1  0.79794800  0.02016300  0.19792800  1
  O  O80  1  0.66358550  0.34250950  0.77711400  1
  O  O81  1  0.66358550  0.65749050  0.22288600  1
  O  O82  1  0.70649900  0.64305600  0.73706800  1
  O  O83  1  0.70649900  0.35694400  0.26293200  1
  O  O84  1  0.70862250  0.35149650  0.57828000  1
  O  O85  1  0.70862250  0.64850350  0.42172000  1
  O  O86  1  0.74778350  0.52484750  0.89288900  1
  O  O87  1  0.74778350  0.47515250  0.10711100  1
  O  O88  1  0.79794800  0.52016300  0.30207200  1
  O  O89  1  0.79794800  0.47983700  0.69792800  1
  O  O90  1  0.89682300  0.81352000  0.80131600  1
  O  O91  1  0.89682300  0.31352000  0.69868400  1
  O  O92  1  0.89682300  0.18648000  0.19868400  1
  O  O93  1  0.89682300  0.68648000  0.30131600  1
  O  O94  1  0.93808400  0.40016900  0.20240900  1
  O  O95  1  0.93808400  0.59983100  0.79759100  1
  O  O96  1  0.93808400  0.09983100  0.70240900  1
  O  O97  1  0.93808400  0.90016900  0.29759100  1
  O  O98  1  0.96923050  0.39677550  0.92713000  1
  O  O99  1  0.96923050  0.10322450  0.42713000  1
  O  O100  1  0.96923050  0.89677550  0.57287000  1
  O  O101  1  0.96923050  0.60322450  0.07287000  1
  O  O102  1  0.02996450  0.27519250  0.37455300  1
  O  O103  1  0.02996450  0.77519250  0.12544700  1
  O  O104  1  0.02996450  0.72480750  0.62544700  1
  O  O105  1  0.02996450  0.22480750  0.87455300  1
  O  O106  1  0.07058200  0.22404000  0.56184100  1
  O  O107  1  0.07058200  0.72404000  0.93815900  1
  O  O108  1  0.07058200  0.77596000  0.43815900  1
  O  O109  1  0.07058200  0.27596000  0.06184100  1
  O  O110  1  0.16358550  0.65749050  0.27711400  1
  O  O111  1  0.16358550  0.34250950  0.72288600  1
  O  O112  1  0.20649900  0.64305600  0.76293200  1
  O  O113  1  0.20649900  0.35694400  0.23706800  1
  O  O114  1  0.20862250  0.35149650  0.92172000  1
  O  O115  1  0.20862250  0.64850350  0.07828000  1
  O  O116  1  0.24778350  0.47515250  0.39288900  1
  O  O117  1  0.24778350  0.52484750  0.60711100  1
  O  O118  1  0.29794800  0.47983700  0.80207200  1
  O  O119  1  0.29794800  0.52016300  0.19792800  1
