# generated using pymatgen
data_Li2V2CrO6
_symmetry_space_group_name_H-M   'P 1'
_cell_length_a   12.94623200
_cell_length_b   8.93422000
_cell_length_c   6.06224153
_cell_angle_alpha   90.00000000
_cell_angle_beta   104.15878808
_cell_angle_gamma   90.00000000
_symmetry_Int_Tables_number   1
_chemical_formula_structural   Li2V2CrO6
_chemical_formula_sum   'Li12 V12 Cr6 O36'
_cell_volume   679.88509516
_cell_formula_units_Z   6
loop_
 _symmetry_equiv_pos_site_id
 _symmetry_equiv_pos_as_xyz
  1  'x, y, z'
loop_
 _atom_site_type_symbol
 _atom_site_label
 _atom_site_symmetry_multiplicity
 _atom_site_fract_x
 _atom_site_fract_y
 _atom_site_fract_z
 _atom_site_occupancy
  Li  Li0  1  0.33480150  0.66798350  0.66131400  1
  Li  Li1  1  0.33480150  0.33201650  0.66131400  1
  Li  Li2  1  0.50000000  0.82906000  0.00000000  1
  Li  Li3  1  0.50000000  0.17094000  0.00000000  1
  Li  Li4  1  0.66519850  0.66798350  0.33868600  1
  Li  Li5  1  0.66519850  0.33201650  0.33868600  1
  Li  Li6  1  0.83480150  0.16798350  0.66131400  1
  Li  Li7  1  0.83480150  0.83201650  0.66131400  1
  Li  Li8  1  0.00000000  0.32906000  0.00000000  1
  Li  Li9  1  0.00000000  0.67094000  0.00000000  1
  Li  Li10  1  0.16519850  0.16798350  0.33868600  1
  Li  Li11  1  0.16519850  0.83201650  0.33868600  1
  V  V12  1  0.33402300  0.00000000  0.17148400  1
  V  V13  1  0.66597700  0.00000000  0.82851600  1
  V  V14  1  0.83227000  0.16152700  0.16434100  1
  V  V15  1  0.83227000  0.83847300  0.16434100  1
  V  V16  1  0.16773000  0.16152700  0.83565900  1
  V  V17  1  0.16773000  0.83847300  0.83565900  1
  V  V18  1  0.83402300  0.50000000  0.17148400  1
  V  V19  1  0.16597700  0.50000000  0.82851600  1
  V  V20  1  0.33227000  0.66152700  0.16434100  1
  V  V21  1  0.33227000  0.33847300  0.16434100  1
  V  V22  1  0.66773000  0.66152700  0.83565900  1
  V  V23  1  0.66773000  0.33847300  0.83565900  1
  Cr  Cr24  1  0.50000000  0.83356500  0.50000000  1
  Cr  Cr25  1  0.00000000  0.00000000  0.50000000  1
  Cr  Cr26  1  0.50000000  0.16643500  0.50000000  1
  Cr  Cr27  1  0.00000000  0.33356500  0.50000000  1
  Cr  Cr28  1  0.50000000  0.50000000  0.50000000  1
  Cr  Cr29  1  0.00000000  0.66643500  0.50000000  1
  O  O30  1  0.51559200  0.00000000  0.74175500  1
  O  O31  1  0.67015100  0.16977000  0.05424500  1
  O  O32  1  0.67015100  0.83023000  0.05424500  1
  O  O33  1  0.48440800  0.00000000  0.25824500  1
  O  O34  1  0.66236900  0.17053300  0.61018600  1
  O  O35  1  0.66236900  0.82946700  0.61018600  1
  O  O36  1  0.32984900  0.83023000  0.94575500  1
  O  O37  1  0.81817800  0.00000000  0.91236800  1
  O  O38  1  0.32984900  0.16977000  0.94575500  1
  O  O39  1  0.33763100  0.82946700  0.38981400  1
  O  O40  1  0.84140100  0.00000000  0.39710800  1
  O  O41  1  0.33763100  0.17053300  0.38981400  1
  O  O42  1  0.50626650  0.67141150  0.72609100  1
  O  O43  1  0.50626650  0.32858850  0.72609100  1
  O  O44  1  0.18182200  0.00000000  0.08763200  1
  O  O45  1  0.49373350  0.67141150  0.27390900  1
  O  O46  1  0.49373350  0.32858850  0.27390900  1
  O  O47  1  0.15859900  0.00000000  0.60289200  1
  O  O48  1  0.01559200  0.50000000  0.74175500  1
  O  O49  1  0.17015100  0.66977000  0.05424500  1
  O  O50  1  0.17015100  0.33023000  0.05424500  1
  O  O51  1  0.98440800  0.50000000  0.25824500  1
  O  O52  1  0.16236900  0.67053300  0.61018600  1
  O  O53  1  0.16236900  0.32946700  0.61018600  1
  O  O54  1  0.82984900  0.33023000  0.94575500  1
  O  O55  1  0.31817800  0.50000000  0.91236800  1
  O  O56  1  0.82984900  0.66977000  0.94575500  1
  O  O57  1  0.83763100  0.32946700  0.38981400  1
  O  O58  1  0.34140100  0.50000000  0.39710800  1
  O  O59  1  0.83763100  0.67053300  0.38981400  1
  O  O60  1  0.00626650  0.17141150  0.72609100  1
  O  O61  1  0.00626650  0.82858850  0.72609100  1
  O  O62  1  0.68182200  0.50000000  0.08763200  1
  O  O63  1  0.99373350  0.17141150  0.27390900  1
  O  O64  1  0.99373350  0.82858850  0.27390900  1
  O  O65  1  0.65859900  0.50000000  0.60289200  1
