# generated using pymatgen
data_VOF
_symmetry_space_group_name_H-M   'P 1'
_cell_length_a   3.33488362
_cell_length_b   3.33488362
_cell_length_c   23.05424852
_cell_angle_alpha   90.00000000
_cell_angle_beta   90.00000000
_cell_angle_gamma   120.00000000
_symmetry_Int_Tables_number   1
_chemical_formula_structural   VOF
_chemical_formula_sum   'V6 O6 F6'
_cell_volume   222.04600730
_cell_formula_units_Z   6
loop_
 _symmetry_equiv_pos_site_id
 _symmetry_equiv_pos_as_xyz
  1  'x, y, z'
loop_
 _atom_site_type_symbol
 _atom_site_label
 _atom_site_symmetry_multiplicity
 _atom_site_fract_x
 _atom_site_fract_y
 _atom_site_fract_z
 _atom_site_occupancy
  V  V0  1  0.33333333  0.66666667  0.27498467  1
  V  V1  1  0.33333333  0.66666667  0.05834867  1
  V  V2  1  0.00000000  0.00000000  0.60831800  1
  V  V3  1  0.00000000  0.00000000  0.39168200  1
  V  V4  1  0.66666667  0.33333333  0.94165133  1
  V  V5  1  0.66666667  0.33333333  0.72501533  1
  O  O6  1  0.00000000  0.00000000  0.30041200  1
  O  O7  1  0.66666667  0.33333333  0.03292133  1
  O  O8  1  0.66666667  0.33333333  0.63374533  1
  O  O9  1  0.33333333  0.66666667  0.36625467  1
  O  O10  1  0.33333333  0.66666667  0.96707867  1
  O  O11  1  0.00000000  0.00000000  0.69958800  1
  F  F12  1  0.00000000  0.00000000  0.10571200  1
  F  F13  1  0.66666667  0.33333333  0.22762133  1
  F  F14  1  0.66666667  0.33333333  0.43904533  1
  F  F15  1  0.33333333  0.66666667  0.56095467  1
  F  F16  1  0.33333333  0.66666667  0.77237867  1
  F  F17  1  0.00000000  0.00000000  0.89428800  1
