# generated using pymatgen
data_Li7(CoO3)2
_symmetry_space_group_name_H-M   'P 1'
_cell_length_a   12.06096600
_cell_length_b   5.12533000
_cell_length_c   9.97988750
_cell_angle_alpha   90.00000000
_cell_angle_beta   106.49632245
_cell_angle_gamma   90.00000000
_symmetry_Int_Tables_number   1
_chemical_formula_structural   Li7(CoO3)2
_chemical_formula_sum   'Li28 Co8 O24'
_cell_volume   591.52729954
_cell_formula_units_Z   4
loop_
 _symmetry_equiv_pos_site_id
 _symmetry_equiv_pos_as_xyz
  1  'x, y, z'
loop_
 _atom_site_type_symbol
 _atom_site_label
 _atom_site_symmetry_multiplicity
 _atom_site_fract_x
 _atom_site_fract_y
 _atom_site_fract_z
 _atom_site_occupancy
  Li  Li0  1  0.93809350  0.61072550  0.83061800  1
  Li  Li1  1  0.83168950  0.39469850  0.59260200  1
  Li  Li2  1  0.93809350  0.38927450  0.33061800  1
  Li  Li3  1  0.77428550  0.95283050  0.70413500  1
  Li  Li4  1  0.83168950  0.60530150  0.09260200  1
  Li  Li5  1  0.72571450  0.45283050  0.79586500  1
  Li  Li6  1  0.77428550  0.04716950  0.20413500  1
  Li  Li7  1  0.66831050  0.89469850  0.90739800  1
  Li  Li8  1  0.72571450  0.54716950  0.29586500  1
  Li  Li9  1  0.56190650  0.11072550  0.66938200  1
  Li  Li10  1  0.66831050  0.10530150  0.40739800  1
  Li  Li11  1  0.00000000  0.04544900  0.75000000  1
  Li  Li12  1  0.56190650  0.88927450  0.16938200  1
  Li  Li13  1  0.00000000  0.95455100  0.25000000  1
  Li  Li14  1  0.43809350  0.11072550  0.83061800  1
  Li  Li15  1  0.33168950  0.89469850  0.59260200  1
  Li  Li16  1  0.43809350  0.88927450  0.33061800  1
  Li  Li17  1  0.27428550  0.45283050  0.70413500  1
  Li  Li18  1  0.33168950  0.10530150  0.09260200  1
  Li  Li19  1  0.22571450  0.95283050  0.79586500  1
  Li  Li20  1  0.27428550  0.54716950  0.20413500  1
  Li  Li21  1  0.16831050  0.39469850  0.90739800  1
  Li  Li22  1  0.22571450  0.04716950  0.29586500  1
  Li  Li23  1  0.06190650  0.61072550  0.66938200  1
  Li  Li24  1  0.16831050  0.60530150  0.40739800  1
  Li  Li25  1  0.50000000  0.54544900  0.75000000  1
  Li  Li26  1  0.06190650  0.38927450  0.16938200  1
  Li  Li27  1  0.50000000  0.45455100  0.25000000  1
  Co  Co28  1  0.90575100  0.08023700  0.96857300  1
  Co  Co29  1  0.90575100  0.91976300  0.46857300  1
  Co  Co30  1  0.59424900  0.58023700  0.53142700  1
  Co  Co31  1  0.59424900  0.41976300  0.03142700  1
  Co  Co32  1  0.40575100  0.58023700  0.96857300  1
  Co  Co33  1  0.40575100  0.41976300  0.46857300  1
  Co  Co34  1  0.09424900  0.08023700  0.53142700  1
  Co  Co35  1  0.09424900  0.91976300  0.03142700  1
  O  O36  1  0.89912600  0.75539500  0.63017300  1
  O  O37  1  0.88534200  0.25834400  0.80144700  1
  O  O38  1  0.89912600  0.24460500  0.13017300  1
  O  O39  1  0.82849750  0.77375950  0.91436600  1
  O  O40  1  0.88534200  0.74165600  0.30144700  1
  O  O41  1  0.67150250  0.27375950  0.58563400  1
  O  O42  1  0.82849750  0.22624050  0.41436600  1
  O  O43  1  0.61465800  0.75834400  0.69855300  1
  O  O44  1  0.67150250  0.72624050  0.08563400  1
  O  O45  1  0.60087400  0.25539500  0.86982700  1
  O  O46  1  0.61465800  0.24165600  0.19855300  1
  O  O47  1  0.60087400  0.74460500  0.36982700  1
  O  O48  1  0.39912600  0.25539500  0.63017300  1
  O  O49  1  0.38534200  0.75834400  0.80144700  1
  O  O50  1  0.39912600  0.74460500  0.13017300  1
  O  O51  1  0.32849750  0.27375950  0.91436600  1
  O  O52  1  0.38534200  0.24165600  0.30144700  1
  O  O53  1  0.17150250  0.77375950  0.58563400  1
  O  O54  1  0.32849750  0.72624050  0.41436600  1
  O  O55  1  0.11465800  0.25834400  0.69855300  1
  O  O56  1  0.17150250  0.22624050  0.08563400  1
  O  O57  1  0.10087400  0.75539500  0.86982700  1
  O  O58  1  0.11465800  0.74165600  0.19855300  1
  O  O59  1  0.10087400  0.24460500  0.36982700  1
