# generated using pymatgen
data_Pr11In9Ni4
_symmetry_space_group_name_H-M   'P 1'
_cell_length_a   14.99652400
_cell_length_b   22.47561800
_cell_length_c   3.78843900
_cell_angle_alpha   90.00000000
_cell_angle_beta   90.00000000
_cell_angle_gamma   90.00000000
_symmetry_Int_Tables_number   1
_chemical_formula_structural   Pr11In9Ni4
_chemical_formula_sum   'Pr22 In18 Ni8'
_cell_volume   1276.91664397
_cell_formula_units_Z   2
loop_
 _symmetry_equiv_pos_site_id
 _symmetry_equiv_pos_as_xyz
  1  'x, y, z'
loop_
 _atom_site_type_symbol
 _atom_site_label
 _atom_site_symmetry_multiplicity
 _atom_site_fract_x
 _atom_site_fract_y
 _atom_site_fract_z
 _atom_site_occupancy
  Pr  Pr0  1  0.50000000  0.00000000  0.50000000  1
  Pr  Pr1  1  0.81281900  0.00000000  0.50000000  1
  Pr  Pr2  1  0.18718100  0.00000000  0.50000000  1
  Pr  Pr3  1  0.74687900  0.16945100  0.50000000  1
  Pr  Pr4  1  0.25312100  0.83054900  0.50000000  1
  Pr  Pr5  1  0.74687900  0.83054900  0.50000000  1
  Pr  Pr6  1  0.25312100  0.16945100  0.50000000  1
  Pr  Pr7  1  0.50000000  0.37427800  0.50000000  1
  Pr  Pr8  1  0.50000000  0.62572200  0.50000000  1
  Pr  Pr9  1  0.50000000  0.16112900  0.50000000  1
  Pr  Pr10  1  0.50000000  0.83887100  0.50000000  1
  Pr  Pr11  1  0.00000000  0.50000000  0.50000000  1
  Pr  Pr12  1  0.31281900  0.50000000  0.50000000  1
  Pr  Pr13  1  0.68718100  0.50000000  0.50000000  1
  Pr  Pr14  1  0.24687900  0.66945100  0.50000000  1
  Pr  Pr15  1  0.75312100  0.33054900  0.50000000  1
  Pr  Pr16  1  0.24687900  0.33054900  0.50000000  1
  Pr  Pr17  1  0.75312100  0.66945100  0.50000000  1
  Pr  Pr18  1  0.00000000  0.87427800  0.50000000  1
  Pr  Pr19  1  0.00000000  0.12572200  0.50000000  1
  Pr  Pr20  1  0.00000000  0.66112900  0.50000000  1
  Pr  Pr21  1  0.00000000  0.33887100  0.50000000  1
  In  In22  1  0.60241150  0.26459050  0.00000000  1
  In  In23  1  0.39758850  0.73540950  0.00000000  1
  In  In24  1  0.60241150  0.73540950  0.00000000  1
  In  In25  1  0.39758850  0.26459050  0.00000000  1
  In  In26  1  0.65080450  0.06937750  0.00000000  1
  In  In27  1  0.34919550  0.93062250  0.00000000  1
  In  In28  1  0.65080450  0.93062250  0.00000000  1
  In  In29  1  0.34919550  0.06937750  0.00000000  1
  In  In30  1  0.00000000  0.00000000  0.00000000  1
  In  In31  1  0.10241150  0.76459050  0.00000000  1
  In  In32  1  0.89758850  0.23540950  0.00000000  1
  In  In33  1  0.10241150  0.23540950  0.00000000  1
  In  In34  1  0.89758850  0.76459050  0.00000000  1
  In  In35  1  0.15080450  0.56937750  0.00000000  1
  In  In36  1  0.84919550  0.43062250  0.00000000  1
  In  In37  1  0.15080450  0.43062250  0.00000000  1
  In  In38  1  0.84919550  0.56937750  0.00000000  1
  In  In39  1  0.50000000  0.50000000  0.00000000  1
  Ni  Ni40  1  0.84693050  0.10149250  0.00000000  1
  Ni  Ni41  1  0.15306950  0.89850750  0.00000000  1
  Ni  Ni42  1  0.84693050  0.89850750  0.00000000  1
  Ni  Ni43  1  0.15306950  0.10149250  0.00000000  1
  Ni  Ni44  1  0.34693050  0.60149250  0.00000000  1
  Ni  Ni45  1  0.65306950  0.39850750  0.00000000  1
  Ni  Ni46  1  0.34693050  0.39850750  0.00000000  1
  Ni  Ni47  1  0.65306950  0.60149250  0.00000000  1
