# generated using pymatgen
data_Er2Si5Ru3
_symmetry_space_group_name_H-M   'P 1'
_cell_length_a   5.58467400
_cell_length_b   9.60218200
_cell_length_c   12.14446800
_cell_angle_alpha   90.00000000
_cell_angle_beta   90.00000000
_cell_angle_gamma   90.00000000
_symmetry_Int_Tables_number   1
_chemical_formula_structural   Er2Si5Ru3
_chemical_formula_sum   'Er8 Si20 Ru12'
_cell_volume   651.24777852
_cell_formula_units_Z   4
loop_
 _symmetry_equiv_pos_site_id
 _symmetry_equiv_pos_as_xyz
  1  'x, y, z'
loop_
 _atom_site_type_symbol
 _atom_site_label
 _atom_site_symmetry_multiplicity
 _atom_site_fract_x
 _atom_site_fract_y
 _atom_site_fract_z
 _atom_site_occupancy
  Er  Er0  1  0.00000000  0.23231200  0.86400400  1
  Er  Er1  1  0.00000000  0.76768800  0.13599600  1
  Er  Er2  1  0.50000000  0.23231200  0.13599600  1
  Er  Er3  1  0.50000000  0.76768800  0.86400400  1
  Er  Er4  1  0.50000000  0.73231200  0.36400400  1
  Er  Er5  1  0.50000000  0.26768800  0.63599600  1
  Er  Er6  1  0.00000000  0.73231200  0.63599600  1
  Er  Er7  1  0.00000000  0.26768800  0.36400400  1
  Si  Si8  1  0.75000000  0.00000000  0.00000000  1
  Si  Si9  1  0.25000000  0.00000000  0.00000000  1
  Si  Si10  1  0.25000000  0.50000000  0.79279800  1
  Si  Si11  1  0.25000000  0.50000000  0.20720200  1
  Si  Si12  1  0.75000000  0.50000000  0.20720200  1
  Si  Si13  1  0.75000000  0.50000000  0.79279800  1
  Si  Si14  1  0.50000000  0.67002400  0.09509900  1
  Si  Si15  1  0.00000000  0.32997600  0.09509900  1
  Si  Si16  1  0.00000000  0.67002400  0.90490100  1
  Si  Si17  1  0.50000000  0.32997600  0.90490100  1
  Si  Si18  1  0.25000000  0.50000000  0.50000000  1
  Si  Si19  1  0.75000000  0.50000000  0.50000000  1
  Si  Si20  1  0.75000000  0.00000000  0.29279800  1
  Si  Si21  1  0.75000000  0.00000000  0.70720200  1
  Si  Si22  1  0.25000000  0.00000000  0.70720200  1
  Si  Si23  1  0.25000000  0.00000000  0.29279800  1
  Si  Si24  1  0.00000000  0.17002400  0.59509900  1
  Si  Si25  1  0.50000000  0.82997600  0.59509900  1
  Si  Si26  1  0.50000000  0.17002400  0.40490100  1
  Si  Si27  1  0.00000000  0.82997600  0.40490100  1
  Ru  Ru28  1  0.50000000  0.59236750  0.64656450  1
  Ru  Ru29  1  0.25000000  0.50000000  0.00000000  1
  Ru  Ru30  1  0.00000000  0.40763250  0.64656450  1
  Ru  Ru31  1  0.00000000  0.59236750  0.35343550  1
  Ru  Ru32  1  0.50000000  0.40763250  0.35343550  1
  Ru  Ru33  1  0.75000000  0.50000000  0.00000000  1
  Ru  Ru34  1  0.00000000  0.09236750  0.14656450  1
  Ru  Ru35  1  0.75000000  0.00000000  0.50000000  1
  Ru  Ru36  1  0.50000000  0.90763250  0.14656450  1
  Ru  Ru37  1  0.50000000  0.09236750  0.85343550  1
  Ru  Ru38  1  0.00000000  0.90763250  0.85343550  1
  Ru  Ru39  1  0.25000000  0.00000000  0.50000000  1
