# generated using pymatgen
data_Pa2S3
_symmetry_space_group_name_H-M   'P 1'
_cell_length_a   6.82220367
_cell_length_b   6.82220367
_cell_length_c   18.70589837
_cell_angle_alpha   90.00000000
_cell_angle_beta   90.00000000
_cell_angle_gamma   120.00000000
_symmetry_Int_Tables_number   1
_chemical_formula_structural   Pa2S3
_chemical_formula_sum   'Pa12 S18'
_cell_volume   753.97780808
_cell_formula_units_Z   6
loop_
 _symmetry_equiv_pos_site_id
 _symmetry_equiv_pos_as_xyz
  1  'x, y, z'
loop_
 _atom_site_type_symbol
 _atom_site_label
 _atom_site_symmetry_multiplicity
 _atom_site_fract_x
 _atom_site_fract_y
 _atom_site_fract_z
 _atom_site_occupancy
  Pa  Pa0  1  0.66666667  0.33333333  0.17689433  1
  Pa  Pa1  1  0.33333333  0.66666667  0.32310567  1
  Pa  Pa2  1  0.33333333  0.66666667  0.01022767  1
  Pa  Pa3  1  0.00000000  0.00000000  0.15643900  1
  Pa  Pa4  1  0.33333333  0.66666667  0.51022767  1
  Pa  Pa5  1  0.00000000  0.00000000  0.65643900  1
  Pa  Pa6  1  0.00000000  0.00000000  0.34356100  1
  Pa  Pa7  1  0.66666667  0.33333333  0.48977233  1
  Pa  Pa8  1  0.00000000  0.00000000  0.84356100  1
  Pa  Pa9  1  0.66666667  0.33333333  0.98977233  1
  Pa  Pa10  1  0.66666667  0.33333333  0.67689433  1
  Pa  Pa11  1  0.33333333  0.66666667  0.82310567  1
  S  S12  1  0.68983800  0.68983800  0.25000000  1
  S  S13  1  0.00000000  0.31016200  0.25000000  1
  S  S14  1  0.31016200  0.00000000  0.25000000  1
  S  S15  1  0.35650467  0.33333333  0.08333333  1
  S  S16  1  0.66666667  0.02317133  0.08333333  1
  S  S17  1  0.97682867  0.64349533  0.08333333  1
  S  S18  1  0.35650467  0.02317133  0.58333333  1
  S  S19  1  0.66666667  0.64349533  0.58333333  1
  S  S20  1  0.97682867  0.33333333  0.58333333  1
  S  S21  1  0.02317133  0.66666667  0.41666667  1
  S  S22  1  0.33333333  0.35650467  0.41666667  1
  S  S23  1  0.64349533  0.97682867  0.41666667  1
  S  S24  1  0.02317133  0.35650467  0.91666667  1
  S  S25  1  0.33333333  0.97682867  0.91666667  1
  S  S26  1  0.64349533  0.66666667  0.91666667  1
  S  S27  1  0.68983800  0.00000000  0.75000000  1
  S  S28  1  0.00000000  0.68983800  0.75000000  1
  S  S29  1  0.31016200  0.31016200  0.75000000  1
