# generated using pymatgen
data_Yb11(Ni10C)6
_symmetry_space_group_name_H-M   'P 1'
_cell_length_a   12.32647200
_cell_length_b   12.32647200
_cell_length_c   12.32647200
_cell_angle_alpha   90.00000000
_cell_angle_beta   90.00000000
_cell_angle_gamma   90.00000000
_symmetry_Int_Tables_number   1
_chemical_formula_structural   Yb11(Ni10C)6
_chemical_formula_sum   'Yb22 Ni120 C12'
_cell_volume   1872.90772349
_cell_formula_units_Z   2
loop_
 _symmetry_equiv_pos_site_id
 _symmetry_equiv_pos_as_xyz
  1  'x, y, z'
loop_
 _atom_site_type_symbol
 _atom_site_label
 _atom_site_symmetry_multiplicity
 _atom_site_fract_x
 _atom_site_fract_y
 _atom_site_fract_z
 _atom_site_occupancy
  Yb  Yb0  1  0.33265450  0.33265450  0.66734550  1
  Yb  Yb1  1  0.83265450  0.16734550  0.16734550  1
  Yb  Yb2  1  0.33265450  0.33265450  0.33265450  1
  Yb  Yb3  1  0.16734550  0.83265450  0.16734550  1
  Yb  Yb4  1  0.16734550  0.16734550  0.16734550  1
  Yb  Yb5  1  0.33265450  0.66734550  0.33265450  1
  Yb  Yb6  1  0.66734550  0.33265450  0.33265450  1
  Yb  Yb7  1  0.16734550  0.16734550  0.83265450  1
  Yb  Yb8  1  0.50000000  0.00000000  0.00000000  1
  Yb  Yb9  1  0.00000000  0.50000000  0.00000000  1
  Yb  Yb10  1  0.00000000  0.00000000  0.50000000  1
  Yb  Yb11  1  0.83265450  0.83265450  0.16734550  1
  Yb  Yb12  1  0.33265450  0.66734550  0.66734550  1
  Yb  Yb13  1  0.83265450  0.83265450  0.83265450  1
  Yb  Yb14  1  0.66734550  0.33265450  0.66734550  1
  Yb  Yb15  1  0.66734550  0.66734550  0.66734550  1
  Yb  Yb16  1  0.83265450  0.16734550  0.83265450  1
  Yb  Yb17  1  0.16734550  0.83265450  0.83265450  1
  Yb  Yb18  1  0.66734550  0.66734550  0.33265450  1
  Yb  Yb19  1  0.00000000  0.50000000  0.50000000  1
  Yb  Yb20  1  0.50000000  0.00000000  0.50000000  1
  Yb  Yb21  1  0.50000000  0.50000000  0.00000000  1
  Ni  Ni22  1  0.59336800  0.17379500  0.17379500  1
  Ni  Ni23  1  0.17379500  0.59336800  0.17379500  1
  Ni  Ni24  1  0.32620500  0.32620500  0.09336800  1
  Ni  Ni25  1  0.40663200  0.17379500  0.82620500  1
  Ni  Ni26  1  0.17379500  0.82620500  0.59336800  1
  Ni  Ni27  1  0.17379500  0.40663200  0.82620500  1
  Ni  Ni28  1  0.82620500  0.17379500  0.59336800  1
  Ni  Ni29  1  0.17379500  0.17379500  0.59336800  1
  Ni  Ni30  1  0.17379500  0.17379500  0.40663200  1
  Ni  Ni31  1  0.59336800  0.82620500  0.17379500  1
  Ni  Ni32  1  0.82620500  0.59336800  0.17379500  1
  Ni  Ni33  1  0.32620500  0.90663200  0.32620500  1
  Ni  Ni34  1  0.90663200  0.32620500  0.32620500  1
  Ni  Ni35  1  0.17379500  0.59336800  0.82620500  1
  Ni  Ni36  1  0.40663200  0.17379500  0.17379500  1
  Ni  Ni37  1  0.17379500  0.40663200  0.17379500  1
  Ni  Ni38  1  0.59336800  0.17379500  0.82620500  1
  Ni  Ni39  1  0.09336800  0.32620500  0.32620500  1
  Ni  Ni40  1  0.40663200  0.82620500  0.17379500  1
  Ni  Ni41  1  0.82620500  0.40663200  0.17379500  1
  Ni  Ni42  1  0.32620500  0.09336800  0.32620500  1
  Ni  Ni43  1  0.17379500  0.82620500  0.40663200  1
  Ni  Ni44  1  0.82620500  0.17379500  0.40663200  1
  Ni  Ni45  1  0.32620500  0.32620500  0.90663200  1
  Ni  Ni46  1  0.14854850  0.00000000  0.68396750  1
  Ni  Ni47  1  0.68396750  0.14854850  0.00000000  1
  Ni  Ni48  1  0.00000000  0.31603250  0.14854850  1
  Ni  Ni49  1  0.35145150  0.50000000  0.81603250  1
  Ni  Ni50  1  0.68396750  0.00000000  0.14854850  1
  Ni  Ni51  1  0.18396750  0.35145150  0.50000000  1
  Ni  Ni52  1  0.31603250  0.00000000  0.14854850  1
  Ni  Ni53  1  0.00000000  0.68396750  0.14854850  1
  Ni  Ni54  1  0.18396750  0.50000000  0.35145150  1
  Ni  Ni55  1  0.14854850  0.31603250  0.00000000  1
  Ni  Ni56  1  0.00000000  0.14854850  0.68396750  1
  Ni  Ni57  1  0.50000000  0.35145150  0.81603250  1
  Ni  Ni58  1  0.35145150  0.81603250  0.50000000  1
  Ni  Ni59  1  0.00000000  0.14854850  0.31603250  1
  Ni  Ni60  1  0.35145150  0.18396750  0.50000000  1
  Ni  Ni61  1  0.50000000  0.35145150  0.18396750  1
  Ni  Ni62  1  0.14854850  0.68396750  0.00000000  1
  Ni  Ni63  1  0.14854850  0.00000000  0.31603250  1
  Ni  Ni64  1  0.35145150  0.50000000  0.18396750  1
  Ni  Ni65  1  0.81603250  0.35145150  0.50000000  1
  Ni  Ni66  1  0.31603250  0.14854850  0.00000000  1
  Ni  Ni67  1  0.50000000  0.81603250  0.35145150  1
  Ni  Ni68  1  0.50000000  0.18396750  0.35145150  1
  Ni  Ni69  1  0.81603250  0.50000000  0.35145150  1
  Ni  Ni70  1  0.00000000  0.85752800  0.00000000  1
  Ni  Ni71  1  0.00000000  0.00000000  0.85752800  1
  Ni  Ni72  1  0.00000000  0.00000000  0.14247200  1
  Ni  Ni73  1  0.85752800  0.00000000  0.00000000  1
  Ni  Ni74  1  0.14247200  0.00000000  0.00000000  1
  Ni  Ni75  1  0.00000000  0.14247200  0.00000000  1
  Ni  Ni76  1  0.00000000  0.50000000  0.25000000  1
  Ni  Ni77  1  0.50000000  0.00000000  0.25000000  1
  Ni  Ni78  1  0.25000000  0.00000000  0.50000000  1
  Ni  Ni79  1  0.50000000  0.25000000  0.00000000  1
  Ni  Ni80  1  0.00000000  0.25000000  0.50000000  1
  Ni  Ni81  1  0.25000000  0.50000000  0.00000000  1
  Ni  Ni82  1  0.09336800  0.67379500  0.67379500  1
  Ni  Ni83  1  0.67379500  0.09336800  0.67379500  1
  Ni  Ni84  1  0.82620500  0.82620500  0.59336800  1
  Ni  Ni85  1  0.90663200  0.67379500  0.32620500  1
  Ni  Ni86  1  0.67379500  0.32620500  0.09336800  1
  Ni  Ni87  1  0.67379500  0.90663200  0.32620500  1
  Ni  Ni88  1  0.32620500  0.67379500  0.09336800  1
  Ni  Ni89  1  0.67379500  0.67379500  0.09336800  1
  Ni  Ni90  1  0.67379500  0.67379500  0.90663200  1
  Ni  Ni91  1  0.09336800  0.32620500  0.67379500  1
  Ni  Ni92  1  0.32620500  0.09336800  0.67379500  1
  Ni  Ni93  1  0.82620500  0.40663200  0.82620500  1
  Ni  Ni94  1  0.40663200  0.82620500  0.82620500  1
  Ni  Ni95  1  0.67379500  0.09336800  0.32620500  1
  Ni  Ni96  1  0.90663200  0.67379500  0.67379500  1
  Ni  Ni97  1  0.67379500  0.90663200  0.67379500  1
  Ni  Ni98  1  0.09336800  0.67379500  0.32620500  1
  Ni  Ni99  1  0.59336800  0.82620500  0.82620500  1
  Ni  Ni100  1  0.90663200  0.32620500  0.67379500  1
  Ni  Ni101  1  0.32620500  0.90663200  0.67379500  1
  Ni  Ni102  1  0.82620500  0.59336800  0.82620500  1
  Ni  Ni103  1  0.67379500  0.32620500  0.90663200  1
  Ni  Ni104  1  0.32620500  0.67379500  0.90663200  1
  Ni  Ni105  1  0.82620500  0.82620500  0.40663200  1
  Ni  Ni106  1  0.64854850  0.50000000  0.18396750  1
  Ni  Ni107  1  0.18396750  0.64854850  0.50000000  1
  Ni  Ni108  1  0.50000000  0.81603250  0.64854850  1
  Ni  Ni109  1  0.85145150  0.00000000  0.31603250  1
  Ni  Ni110  1  0.18396750  0.50000000  0.64854850  1
  Ni  Ni111  1  0.68396750  0.85145150  0.00000000  1
  Ni  Ni112  1  0.81603250  0.50000000  0.64854850  1
  Ni  Ni113  1  0.50000000  0.18396750  0.64854850  1
  Ni  Ni114  1  0.68396750  0.00000000  0.85145150  1
  Ni  Ni115  1  0.64854850  0.81603250  0.50000000  1
  Ni  Ni116  1  0.50000000  0.64854850  0.18396750  1
  Ni  Ni117  1  0.00000000  0.85145150  0.31603250  1
  Ni  Ni118  1  0.85145150  0.31603250  0.00000000  1
  Ni  Ni119  1  0.50000000  0.64854850  0.81603250  1
  Ni  Ni120  1  0.85145150  0.68396750  0.00000000  1
  Ni  Ni121  1  0.00000000  0.85145150  0.68396750  1
  Ni  Ni122  1  0.64854850  0.18396750  0.50000000  1
  Ni  Ni123  1  0.64854850  0.50000000  0.81603250  1
  Ni  Ni124  1  0.85145150  0.00000000  0.68396750  1
  Ni  Ni125  1  0.31603250  0.85145150  0.00000000  1
  Ni  Ni126  1  0.81603250  0.64854850  0.50000000  1
  Ni  Ni127  1  0.00000000  0.31603250  0.85145150  1
  Ni  Ni128  1  0.00000000  0.68396750  0.85145150  1
  Ni  Ni129  1  0.31603250  0.00000000  0.85145150  1
  Ni  Ni130  1  0.50000000  0.35752800  0.50000000  1
  Ni  Ni131  1  0.50000000  0.50000000  0.35752800  1
  Ni  Ni132  1  0.50000000  0.50000000  0.64247200  1
  Ni  Ni133  1  0.35752800  0.50000000  0.50000000  1
  Ni  Ni134  1  0.64247200  0.50000000  0.50000000  1
  Ni  Ni135  1  0.50000000  0.64247200  0.50000000  1
  Ni  Ni136  1  0.50000000  0.00000000  0.75000000  1
  Ni  Ni137  1  0.00000000  0.50000000  0.75000000  1
  Ni  Ni138  1  0.75000000  0.50000000  0.00000000  1
  Ni  Ni139  1  0.00000000  0.75000000  0.50000000  1
  Ni  Ni140  1  0.50000000  0.75000000  0.00000000  1
  Ni  Ni141  1  0.75000000  0.00000000  0.50000000  1
  C  C142  1  0.00000000  0.70941700  0.00000000  1
  C  C143  1  0.00000000  0.00000000  0.70941700  1
  C  C144  1  0.00000000  0.00000000  0.29058300  1
  C  C145  1  0.70941700  0.00000000  0.00000000  1
  C  C146  1  0.29058300  0.00000000  0.00000000  1
  C  C147  1  0.00000000  0.29058300  0.00000000  1
  C  C148  1  0.50000000  0.20941700  0.50000000  1
  C  C149  1  0.50000000  0.50000000  0.20941700  1
  C  C150  1  0.50000000  0.50000000  0.79058300  1
  C  C151  1  0.20941700  0.50000000  0.50000000  1
  C  C152  1  0.79058300  0.50000000  0.50000000  1
  C  C153  1  0.50000000  0.79058300  0.50000000  1
