# generated using pymatgen
data_Ca(Mo3S4)2
_symmetry_space_group_name_H-M   'P 1'
_cell_length_a   9.24832802
_cell_length_b   9.24832802
_cell_length_c   11.40770891
_cell_angle_alpha   90.00000000
_cell_angle_beta   90.00000000
_cell_angle_gamma   120.00000000
_symmetry_Int_Tables_number   1
_chemical_formula_structural   Ca(Mo3S4)2
_chemical_formula_sum   'Ca3 Mo18 S24'
_cell_volume   844.99767187
_cell_formula_units_Z   3
loop_
 _symmetry_equiv_pos_site_id
 _symmetry_equiv_pos_as_xyz
  1  'x, y, z'
loop_
 _atom_site_type_symbol
 _atom_site_label
 _atom_site_symmetry_multiplicity
 _atom_site_fract_x
 _atom_site_fract_y
 _atom_site_fract_z
 _atom_site_occupancy
  Ca  Ca0  1  0.00000000  0.00000000  0.00000000  1
  Ca  Ca1  1  0.66666667  0.33333333  0.33333333  1
  Ca  Ca2  1  0.33333333  0.66666667  0.66666667  1
  Mo  Mo3  1  0.50919033  0.68358967  0.26649767  1
  Mo  Mo4  1  0.31641033  0.82560067  0.26649767  1
  Mo  Mo5  1  0.49226733  0.84252367  0.06683567  1
  Mo  Mo6  1  0.15747633  0.64974367  0.06683567  1
  Mo  Mo7  1  0.35025633  0.50773267  0.06683567  1
  Mo  Mo8  1  0.17439933  0.49080967  0.26649767  1
  Mo  Mo9  1  0.17585700  0.01692300  0.59983100  1
  Mo  Mo10  1  0.98307700  0.15893400  0.59983100  1
  Mo  Mo11  1  0.15893400  0.17585700  0.40016900  1
  Mo  Mo12  1  0.82414300  0.98307700  0.40016900  1
  Mo  Mo13  1  0.01692300  0.84106600  0.40016900  1
  Mo  Mo14  1  0.84106600  0.82414300  0.59983100  1
  Mo  Mo15  1  0.84252367  0.35025633  0.93316433  1
  Mo  Mo16  1  0.64974367  0.49226733  0.93316433  1
  Mo  Mo17  1  0.82560067  0.50919033  0.73350233  1
  Mo  Mo18  1  0.49080967  0.31641033  0.73350233  1
  Mo  Mo19  1  0.68358967  0.17439933  0.73350233  1
  Mo  Mo20  1  0.50773267  0.15747633  0.93316433  1
  S  S21  1  0.33333333  0.66666667  0.42806167  1
  S  S22  1  0.33333333  0.66666667  0.90527167  1
  S  S23  1  0.00726533  0.62917167  0.25010767  1
  S  S24  1  0.37082833  0.37809367  0.25010767  1
  S  S25  1  0.62190633  0.99273467  0.25010767  1
  S  S26  1  0.65940133  0.70416167  0.08322567  1
  S  S27  1  0.29583833  0.95523967  0.08322567  1
  S  S28  1  0.04476033  0.34059867  0.08322567  1
  S  S29  1  0.00000000  0.00000000  0.76139500  1
  S  S30  1  0.00000000  0.00000000  0.23860500  1
  S  S31  1  0.67393200  0.96250500  0.58344100  1
  S  S32  1  0.03749500  0.71142700  0.58344100  1
  S  S33  1  0.28857300  0.32606800  0.58344100  1
  S  S34  1  0.32606800  0.03749500  0.41655900  1
  S  S35  1  0.96250500  0.28857300  0.41655900  1
  S  S36  1  0.71142700  0.67393200  0.41655900  1
  S  S37  1  0.66666667  0.33333333  0.09472833  1
  S  S38  1  0.66666667  0.33333333  0.57193833  1
  S  S39  1  0.34059867  0.29583833  0.91677433  1
  S  S40  1  0.70416167  0.04476033  0.91677433  1
  S  S41  1  0.95523967  0.65940133  0.91677433  1
  S  S42  1  0.99273467  0.37082833  0.74989233  1
  S  S43  1  0.62917167  0.62190633  0.74989233  1
  S  S44  1  0.37809367  0.00726533  0.74989233  1
