# generated using pymatgen
data_Rb2MnTe2
_symmetry_space_group_name_H-M   'P 1'
_cell_length_a   7.15694600
_cell_length_b   7.73871800
_cell_length_c   14.83017000
_cell_angle_alpha   90.00000000
_cell_angle_beta   90.00000000
_cell_angle_gamma   90.00000000
_symmetry_Int_Tables_number   1
_chemical_formula_structural   Rb2MnTe2
_chemical_formula_sum   'Rb8 Mn4 Te8'
_cell_volume   821.37766832
_cell_formula_units_Z   4
loop_
 _symmetry_equiv_pos_site_id
 _symmetry_equiv_pos_as_xyz
  1  'x, y, z'
loop_
 _atom_site_type_symbol
 _atom_site_label
 _atom_site_symmetry_multiplicity
 _atom_site_fract_x
 _atom_site_fract_y
 _atom_site_fract_z
 _atom_site_occupancy
  Rb  Rb0  1  0.50000000  0.82401700  0.35633700  1
  Rb  Rb1  1  0.00000000  0.17598300  0.35633700  1
  Rb  Rb2  1  0.00000000  0.67598300  0.14366300  1
  Rb  Rb3  1  0.50000000  0.32401700  0.14366300  1
  Rb  Rb4  1  0.00000000  0.32401700  0.85633700  1
  Rb  Rb5  1  0.50000000  0.67598300  0.85633700  1
  Rb  Rb6  1  0.50000000  0.17598300  0.64366300  1
  Rb  Rb7  1  0.00000000  0.82401700  0.64366300  1
  Mn  Mn8  1  0.25000000  0.00000000  0.00000000  1
  Mn  Mn9  1  0.75000000  0.00000000  0.00000000  1
  Mn  Mn10  1  0.75000000  0.50000000  0.50000000  1
  Mn  Mn11  1  0.25000000  0.50000000  0.50000000  1
  Te  Te12  1  0.00000000  0.18851350  0.10349650  1
  Te  Te13  1  0.50000000  0.31148650  0.39650350  1
  Te  Te14  1  0.00000000  0.68851350  0.39650350  1
  Te  Te15  1  0.50000000  0.81148650  0.10349650  1
  Te  Te16  1  0.50000000  0.68851350  0.60349650  1
  Te  Te17  1  0.00000000  0.81148650  0.89650350  1
  Te  Te18  1  0.50000000  0.18851350  0.89650350  1
  Te  Te19  1  0.00000000  0.31148650  0.60349650  1
