# generated using pymatgen
data_LiV2OF5
_symmetry_space_group_name_H-M   'P 1'
_cell_length_a   9.71894600
_cell_length_b   5.22683200
_cell_length_c   17.78833197
_cell_angle_alpha   90.00000000
_cell_angle_beta   104.34321095
_cell_angle_gamma   90.00000000
_symmetry_Int_Tables_number   1
_chemical_formula_structural   LiV2OF5
_chemical_formula_sum   'Li8 V16 O8 F40'
_cell_volume   875.46773513
_cell_formula_units_Z   8
loop_
 _symmetry_equiv_pos_site_id
 _symmetry_equiv_pos_as_xyz
  1  'x, y, z'
loop_
 _atom_site_type_symbol
 _atom_site_label
 _atom_site_symmetry_multiplicity
 _atom_site_fract_x
 _atom_site_fract_y
 _atom_site_fract_z
 _atom_site_occupancy
  Li  Li0  1  0.57749100  0.05179500  0.87925100  1
  Li  Li1  1  0.57375250  0.56440250  0.38437000  1
  Li  Li2  1  0.42624750  0.56440250  0.61563000  1
  Li  Li3  1  0.42250900  0.05179500  0.12074900  1
  Li  Li4  1  0.07749100  0.55179500  0.87925100  1
  Li  Li5  1  0.07375250  0.06440250  0.38437000  1
  Li  Li6  1  0.92624750  0.06440250  0.61563000  1
  Li  Li7  1  0.92250900  0.55179500  0.12074900  1
  V  V8  1  0.44210400  0.53935700  0.80985300  1
  V  V9  1  0.56027400  0.07629100  0.69495400  1
  V  V10  1  0.32188450  0.56681750  0.44008000  1
  V  V11  1  0.67811550  0.56681750  0.55992000  1
  V  V12  1  0.55789600  0.53935700  0.19014700  1
  V  V13  1  0.17657550  0.54694450  0.05931700  1
  V  V14  1  0.43972600  0.07629100  0.30504600  1
  V  V15  1  0.82342450  0.54694450  0.94068300  1
  V  V16  1  0.94210400  0.03935700  0.80985300  1
  V  V17  1  0.06027400  0.57629100  0.69495400  1
  V  V18  1  0.82188450  0.06681750  0.44008000  1
  V  V19  1  0.17811550  0.06681750  0.55992000  1
  V  V20  1  0.05789600  0.03935700  0.19014700  1
  V  V21  1  0.67657550  0.04694450  0.05931700  1
  V  V22  1  0.93972600  0.57629100  0.30504600  1
  V  V23  1  0.32342450  0.04694450  0.94068300  1
  O  O24  1  0.52817900  0.25188500  0.78002700  1
  O  O25  1  0.50000000  0.48339700  0.50000000  1
  O  O26  1  0.47182100  0.25188500  0.21997300  1
  O  O27  1  0.00000000  0.46014600  0.00000000  1
  O  O28  1  0.02817900  0.75188500  0.78002700  1
  O  O29  1  0.00000000  0.98339700  0.50000000  1
  O  O30  1  0.97182100  0.75188500  0.21997300  1
  O  O31  1  0.50000000  0.96014600  0.00000000  1
  F  F32  1  0.37393600  0.19966200  0.62184800  1
  F  F33  1  0.25410450  0.94677050  0.24728700  1
  F  F34  1  0.74589550  0.94677050  0.75271300  1
  F  F35  1  0.40387750  0.87079650  0.39804700  1
  F  F36  1  0.59612250  0.87079650  0.60195300  1
  F  F37  1  0.09570500  0.86002500  0.09644900  1
  F  F38  1  0.71718350  0.75474450  0.46371900  1
  F  F39  1  0.53928800  0.74515500  0.28662300  1
  F  F40  1  0.46071200  0.74515500  0.71337700  1
  F  F41  1  0.71563150  0.23709950  0.96266900  1
  F  F42  1  0.37040900  0.68679100  0.12408500  1
  F  F43  1  0.90429500  0.86002500  0.90355100  1
  F  F44  1  0.13242650  0.36781750  0.15271300  1
  F  F45  1  0.35922700  0.38529700  0.34711100  1
  F  F46  1  0.64077300  0.38529700  0.65288900  1
  F  F47  1  0.28281650  0.75474450  0.53628100  1
  F  F48  1  0.28436850  0.23709950  0.03733100  1
  F  F49  1  0.62606400  0.19966200  0.37815200  1
  F  F50  1  0.62959100  0.68679100  0.87591500  1
  F  F51  1  0.86757350  0.36781750  0.84728700  1
  F  F52  1  0.87393600  0.69966200  0.62184800  1
  F  F53  1  0.75410450  0.44677050  0.24728700  1
  F  F54  1  0.24589550  0.44677050  0.75271300  1
  F  F55  1  0.90387750  0.37079650  0.39804700  1
  F  F56  1  0.09612250  0.37079650  0.60195300  1
  F  F57  1  0.59570500  0.36002500  0.09644900  1
  F  F58  1  0.21718350  0.25474450  0.46371900  1
  F  F59  1  0.03928800  0.24515500  0.28662300  1
  F  F60  1  0.96071200  0.24515500  0.71337700  1
  F  F61  1  0.21563150  0.73709950  0.96266900  1
  F  F62  1  0.87040900  0.18679100  0.12408500  1
  F  F63  1  0.40429500  0.36002500  0.90355100  1
  F  F64  1  0.63242650  0.86781750  0.15271300  1
  F  F65  1  0.85922700  0.88529700  0.34711100  1
  F  F66  1  0.14077300  0.88529700  0.65288900  1
  F  F67  1  0.78281650  0.25474450  0.53628100  1
  F  F68  1  0.78436850  0.73709950  0.03733100  1
  F  F69  1  0.12606400  0.69966200  0.37815200  1
  F  F70  1  0.12959100  0.18679100  0.87591500  1
  F  F71  1  0.36757350  0.86781750  0.84728700  1
