# generated using pymatgen
data_Sc3Si3Ni
_symmetry_space_group_name_H-M   'P 1'
_cell_length_a   9.84289000
_cell_length_b   3.98644000
_cell_length_c   12.82531256
_cell_angle_alpha   90.00000000
_cell_angle_beta   110.23853689
_cell_angle_gamma   90.00000000
_symmetry_Int_Tables_number   1
_chemical_formula_structural   Sc3Si3Ni
_chemical_formula_sum   'Sc12 Si12 Ni4'
_cell_volume   472.17097240
_cell_formula_units_Z   4
loop_
 _symmetry_equiv_pos_site_id
 _symmetry_equiv_pos_as_xyz
  1  'x, y, z'
loop_
 _atom_site_type_symbol
 _atom_site_label
 _atom_site_symmetry_multiplicity
 _atom_site_fract_x
 _atom_site_fract_y
 _atom_site_fract_z
 _atom_site_occupancy
  Sc  Sc0  1  0.60076500  0.00000000  0.92092300  1
  Sc  Sc1  1  0.47508900  0.00000000  0.62133800  1
  Sc  Sc2  1  0.24267900  0.50000000  0.22635600  1
  Sc  Sc3  1  0.52491100  0.00000000  0.37866200  1
  Sc  Sc4  1  0.39923500  0.00000000  0.07907700  1
  Sc  Sc5  1  0.75732100  0.50000000  0.77364400  1
  Sc  Sc6  1  0.10076500  0.50000000  0.92092300  1
  Sc  Sc7  1  0.97508900  0.50000000  0.62133800  1
  Sc  Sc8  1  0.74267900  0.00000000  0.22635600  1
  Sc  Sc9  1  0.02491100  0.50000000  0.37866200  1
  Sc  Sc10  1  0.89923500  0.50000000  0.07907700  1
  Sc  Sc11  1  0.25732100  0.00000000  0.77364400  1
  Si  Si12  1  0.46133400  0.50000000  0.76343700  1
  Si  Si13  1  0.36736100  0.50000000  0.45428600  1
  Si  Si14  1  0.63263900  0.50000000  0.54571400  1
  Si  Si15  1  0.11779800  0.00000000  0.07566600  1
  Si  Si16  1  0.53866600  0.50000000  0.23656300  1
  Si  Si17  1  0.88220200  0.00000000  0.92433400  1
  Si  Si18  1  0.96133400  0.00000000  0.76343700  1
  Si  Si19  1  0.86736100  0.00000000  0.45428600  1
  Si  Si20  1  0.13263900  0.00000000  0.54571400  1
  Si  Si21  1  0.61779800  0.50000000  0.07566600  1
  Si  Si22  1  0.03866600  0.00000000  0.23656300  1
  Si  Si23  1  0.38220200  0.50000000  0.92433400  1
  Ni  Ni24  1  0.24337500  0.00000000  0.40443100  1
  Ni  Ni25  1  0.75662500  0.00000000  0.59556900  1
  Ni  Ni26  1  0.74337500  0.50000000  0.40443100  1
  Ni  Ni27  1  0.25662500  0.50000000  0.59556900  1
