# generated using pymatgen
data_Li4Ti2Ni3Sb3O16
_symmetry_space_group_name_H-M   'P 1'
_cell_length_a   10.54780711
_cell_length_b   6.13110629
_cell_length_c   9.71285220
_cell_angle_alpha   90.00000000
_cell_angle_beta   90.44063254
_cell_angle_gamma   90.00000000
_symmetry_Int_Tables_number   1
_chemical_formula_structural   Li4Ti2Ni3Sb3O16
_chemical_formula_sum   'Li8 Ti4 Ni6 Sb6 O32'
_cell_volume   628.10892116
_cell_formula_units_Z   2
loop_
 _symmetry_equiv_pos_site_id
 _symmetry_equiv_pos_as_xyz
  1  'x, y, z'
loop_
 _atom_site_type_symbol
 _atom_site_label
 _atom_site_symmetry_multiplicity
 _atom_site_fract_x
 _atom_site_fract_y
 _atom_site_fract_z
 _atom_site_occupancy
  Li  Li0  1  0.82645050  0.50000000  0.10946600  1
  Li  Li1  1  0.51583550  0.50000000  0.01549650  1
  Li  Li2  1  0.50835800  0.50000000  0.49580550  1
  Li  Li3  1  0.17563000  0.50000000  0.59651950  1
  Li  Li4  1  0.32645050  0.00000000  0.10946600  1
  Li  Li5  1  0.01583550  0.00000000  0.01549650  1
  Li  Li6  1  0.00835800  0.00000000  0.49580550  1
  Li  Li7  1  0.67563000  0.00000000  0.59651950  1
  Ti  Ti8  1  0.82213400  0.50000000  0.49595500  1
  Ti  Ti9  1  0.14025750  0.50000000  0.02672900  1
  Ti  Ti10  1  0.32213400  0.00000000  0.49595500  1
  Ti  Ti11  1  0.64025750  0.00000000  0.02672900  1
  Ni  Ni12  1  0.67208800  0.50000000  0.78578150  1
  Ni  Ni13  1  0.08114350  0.25646050  0.28765600  1
  Ni  Ni14  1  0.08114350  0.74353950  0.28765600  1
  Ni  Ni15  1  0.17208800  0.00000000  0.78578150  1
  Ni  Ni16  1  0.58114350  0.75646050  0.28765600  1
  Ni  Ni17  1  0.58114350  0.24353950  0.28765600  1
  Sb  Sb18  1  0.32512750  0.50000000  0.28429000  1
  Sb  Sb19  1  0.91805950  0.25367100  0.78406100  1
  Sb  Sb20  1  0.91805950  0.74632900  0.78406100  1
  Sb  Sb21  1  0.82512750  0.00000000  0.28429000  1
  Sb  Sb22  1  0.41805950  0.75367100  0.78406100  1
  Sb  Sb23  1  0.41805950  0.24632900  0.78406100  1
  O  O24  1  0.99142500  0.50000000  0.66225750  1
  O  O25  1  0.83795400  0.50000000  0.89844750  1
  O  O26  1  0.50333700  0.50000000  0.68315300  1
  O  O27  1  0.49440500  0.50000000  0.19905600  1
  O  O28  1  0.34437150  0.50000000  0.89764700  1
  O  O29  1  0.67288600  0.50000000  0.40959800  1
  O  O30  1  0.16718750  0.50000000  0.39419050  1
  O  O31  1  0.01289000  0.50000000  0.14883000  1
  O  O32  1  0.90719150  0.24727000  0.40654450  1
  O  O33  1  0.90719150  0.75273000  0.40654450  1
  O  O34  1  0.76740400  0.28093150  0.65542100  1
  O  O35  1  0.76740400  0.71906850  0.65542100  1
  O  O36  1  0.24049200  0.28513200  0.15348450  1
  O  O37  1  0.24049200  0.71486800  0.15348450  1
  O  O38  1  0.08041250  0.25144200  0.90729050  1
  O  O39  1  0.08041250  0.74855800  0.90729050  1
  O  O40  1  0.49142500  0.00000000  0.66225750  1
  O  O41  1  0.33795400  0.00000000  0.89844750  1
  O  O42  1  0.00333700  0.00000000  0.68315300  1
  O  O43  1  0.99440500  0.00000000  0.19905600  1
  O  O44  1  0.84437150  0.00000000  0.89764700  1
  O  O45  1  0.17288600  0.00000000  0.40959800  1
  O  O46  1  0.66718750  0.00000000  0.39419050  1
  O  O47  1  0.51289000  0.00000000  0.14883000  1
  O  O48  1  0.40719150  0.74727000  0.40654450  1
  O  O49  1  0.40719150  0.25273000  0.40654450  1
  O  O50  1  0.26740400  0.78093150  0.65542100  1
  O  O51  1  0.26740400  0.21906850  0.65542100  1
  O  O52  1  0.74049200  0.78513200  0.15348450  1
  O  O53  1  0.74049200  0.21486800  0.15348450  1
  O  O54  1  0.58041250  0.75144200  0.90729050  1
  O  O55  1  0.58041250  0.24855800  0.90729050  1
