# generated using pymatgen
data_Li3V3P8O29
_symmetry_space_group_name_H-M   'P 1'
_cell_length_a   16.92915600
_cell_length_b   9.80646600
_cell_length_c   14.30669653
_cell_angle_alpha   90.00000000
_cell_angle_beta   90.73947495
_cell_angle_gamma   90.00000000
_symmetry_Int_Tables_number   1
_chemical_formula_structural   Li3V3P8O29
_chemical_formula_sum   'Li12 V12 P32 O116'
_cell_volume   2374.93116957
_cell_formula_units_Z   4
loop_
 _symmetry_equiv_pos_site_id
 _symmetry_equiv_pos_as_xyz
  1  'x, y, z'
loop_
 _atom_site_type_symbol
 _atom_site_label
 _atom_site_symmetry_multiplicity
 _atom_site_fract_x
 _atom_site_fract_y
 _atom_site_fract_z
 _atom_site_occupancy
  Li  Li0  1  0.38625750  0.30537250  0.43892000  1
  Li  Li1  1  0.38625750  0.69462750  0.93892000  1
  Li  Li2  1  0.61039550  0.30527750  0.05794300  1
  Li  Li3  1  0.54599350  0.22775450  0.55772400  1
  Li  Li4  1  0.61039550  0.69472250  0.55794300  1
  Li  Li5  1  0.54599350  0.77224550  0.05772400  1
  Li  Li6  1  0.88625750  0.80537250  0.43892000  1
  Li  Li7  1  0.88625750  0.19462750  0.93892000  1
  Li  Li8  1  0.11039550  0.80527750  0.05794300  1
  Li  Li9  1  0.04599350  0.72775450  0.55772400  1
  Li  Li10  1  0.11039550  0.19472250  0.55794300  1
  Li  Li11  1  0.04599350  0.27224550  0.05772400  1
  V  V12  1  0.49800200  0.93286900  0.25409800  1
  V  V13  1  0.78232300  0.78804500  0.24158000  1
  V  V14  1  0.78232300  0.21195500  0.74158000  1
  V  V15  1  0.21847300  0.78452500  0.25521700  1
  V  V16  1  0.21847300  0.21547500  0.75521700  1
  V  V17  1  0.49800200  0.06713100  0.75409800  1
  V  V18  1  0.99800200  0.43286900  0.25409800  1
  V  V19  1  0.28232300  0.28804500  0.24158000  1
  V  V20  1  0.28232300  0.71195500  0.74158000  1
  V  V21  1  0.71847300  0.28452500  0.25521700  1
  V  V22  1  0.71847300  0.71547500  0.75521700  1
  V  V23  1  0.99800200  0.56713100  0.75409800  1
  P  P24  1  0.45678200  0.22622700  0.16009400  1
  P  P25  1  0.38374000  0.29629600  0.65801500  1
  P  P26  1  0.45678200  0.77377300  0.66009400  1
  P  P27  1  0.33365350  0.00672750  0.36920400  1
  P  P28  1  0.33365350  0.99327250  0.86920400  1
  P  P29  1  0.38374000  0.70370400  0.15801500  1
  P  P30  1  0.84473050  0.07050150  0.33963700  1
  P  P31  1  0.15685550  0.06946850  0.16264100  1
  P  P32  1  0.84473050  0.92949850  0.83963700  1
  P  P33  1  0.15685550  0.93053150  0.66264100  1
  P  P34  1  0.61842400  0.29621800  0.84208200  1
  P  P35  1  0.66258350  0.00411650  0.13054600  1
  P  P36  1  0.66258350  0.99588350  0.63054600  1
  P  P37  1  0.54435700  0.22520300  0.34102200  1
  P  P38  1  0.61842400  0.70378200  0.34208200  1
  P  P39  1  0.54435700  0.77479700  0.84102200  1
  P  P40  1  0.95678200  0.72622700  0.16009400  1
  P  P41  1  0.88374000  0.79629600  0.65801500  1
  P  P42  1  0.95678200  0.27377300  0.66009400  1
  P  P43  1  0.83365350  0.50672750  0.36920400  1
  P  P44  1  0.83365350  0.49327250  0.86920400  1
  P  P45  1  0.88374000  0.20370400  0.15801500  1
  P  P46  1  0.34473050  0.57050150  0.33963700  1
  P  P47  1  0.65685550  0.56946850  0.16264100  1
  P  P48  1  0.34473050  0.42949850  0.83963700  1
  P  P49  1  0.65685550  0.43053150  0.66264100  1
  P  P50  1  0.11842400  0.79621800  0.84208200  1
  P  P51  1  0.16258350  0.50411650  0.13054600  1
  P  P52  1  0.16258350  0.49588350  0.63054600  1
  P  P53  1  0.04435700  0.72520300  0.34102200  1
  P  P54  1  0.11842400  0.20378200  0.34208200  1
  P  P55  1  0.04435700  0.27479700  0.84102200  1
  O  O56  1  0.50335500  0.25611200  0.43058800  1
  O  O57  1  0.45790600  0.20211300  0.66618800  1
  O  O58  1  0.89304850  0.90083350  0.74375300  1
  O  O59  1  0.38446950  0.38301550  0.92517300  1
  O  O60  1  0.45345350  0.07001350  0.17740000  1
  O  O61  1  0.37109350  0.28313150  0.16497700  1
  O  O62  1  0.40831800  0.06864100  0.82407200  1
  O  O63  1  0.45345350  0.92998650  0.67740000  1
  O  O64  1  0.50335500  0.74388800  0.93058800  1
  O  O65  1  0.45790600  0.79788700  0.16618800  1
  O  O66  1  0.33370600  0.15485300  0.32861500  1
  O  O67  1  0.40831800  0.93135900  0.32407200  1
  O  O68  1  0.30824750  0.21236050  0.68131800  1
  O  O69  1  0.33747900  0.00319500  0.47245400  1
  O  O70  1  0.33747900  0.99680500  0.97245400  1
  O  O71  1  0.23845300  0.14291600  0.17628200  1
  O  O72  1  0.33370600  0.84514700  0.82861500  1
  O  O73  1  0.25996300  0.07204500  0.82518600  1
  O  O74  1  0.37109350  0.71686850  0.66497700  1
  O  O75  1  0.89304850  0.09916650  0.24375300  1
  O  O76  1  0.38000800  0.63559700  0.06602900  1
  O  O77  1  0.38446950  0.61698450  0.42517300  1
  O  O78  1  0.30824750  0.78763950  0.18131800  1
  O  O79  1  0.25996300  0.92795500  0.32518600  1
  O  O80  1  0.17020400  0.08676900  0.66215500  1
  O  O81  1  0.83096600  0.08691400  0.83327500  1
  O  O82  1  0.23845300  0.85708400  0.67628200  1
  O  O83  1  0.38000800  0.36440300  0.56602900  1
  O  O84  1  0.62138050  0.63646150  0.43409200  1
  O  O85  1  0.76239600  0.14381000  0.32105200  1
  O  O86  1  0.17020400  0.91323100  0.16215500  1
  O  O87  1  0.10967250  0.09388450  0.25895000  1
  O  O88  1  0.83096600  0.91308600  0.33327500  1
  O  O89  1  0.73856800  0.07217600  0.67448700  1
  O  O90  1  0.69367650  0.21324150  0.81856200  1
  O  O91  1  0.62138050  0.36353850  0.93409200  1
  O  O92  1  0.61210950  0.37866850  0.58060700  1
  O  O93  1  0.10967250  0.90611550  0.75895000  1
  O  O94  1  0.62837900  0.28530800  0.33302600  1
  O  O95  1  0.73856800  0.92782400  0.17448700  1
  O  O96  1  0.76239600  0.85619000  0.82105200  1
  O  O97  1  0.66487850  0.15269250  0.17181500  1
  O  O98  1  0.66342250  0.00051850  0.52669300  1
  O  O99  1  0.66342250  0.99948150  0.02669300  1
  O  O100  1  0.69367650  0.78675850  0.31856200  1
  O  O101  1  0.58937450  0.07340650  0.67042400  1
  O  O102  1  0.66487850  0.84730750  0.67181500  1
  O  O103  1  0.54602150  0.19982650  0.82737000  1
  O  O104  1  0.49551150  0.29006950  0.25574600  1
  O  O105  1  0.50290750  0.26759350  0.07831700  1
  O  O106  1  0.54910550  0.06890650  0.32309100  1
  O  O107  1  0.58937450  0.92659350  0.17042400  1
  O  O108  1  0.62837900  0.71469200  0.83302600  1
  O  O109  1  0.54910550  0.93109350  0.82309100  1
  O  O110  1  0.61210950  0.62133150  0.08060700  1
  O  O111  1  0.54602150  0.80017350  0.32737000  1
  O  O112  1  0.50290750  0.73240650  0.57831700  1
  O  O113  1  0.49551150  0.70993050  0.75574600  1
  O  O114  1  0.00335500  0.75611200  0.43058800  1
  O  O115  1  0.95790600  0.70211300  0.66618800  1
  O  O116  1  0.39304850  0.40083350  0.74375300  1
  O  O117  1  0.88446950  0.88301550  0.92517300  1
  O  O118  1  0.95345350  0.57001350  0.17740000  1
  O  O119  1  0.87109350  0.78313150  0.16497700  1
  O  O120  1  0.90831800  0.56864100  0.82407200  1
  O  O121  1  0.95345350  0.42998650  0.67740000  1
  O  O122  1  0.00335500  0.24388800  0.93058800  1
  O  O123  1  0.95790600  0.29788700  0.16618800  1
  O  O124  1  0.83370600  0.65485300  0.32861500  1
  O  O125  1  0.90831800  0.43135900  0.32407200  1
  O  O126  1  0.80824750  0.71236050  0.68131800  1
  O  O127  1  0.83747900  0.50319500  0.47245400  1
  O  O128  1  0.83747900  0.49680500  0.97245400  1
  O  O129  1  0.73845300  0.64291600  0.17628200  1
  O  O130  1  0.83370600  0.34514700  0.82861500  1
  O  O131  1  0.75996300  0.57204500  0.82518600  1
  O  O132  1  0.87109350  0.21686850  0.66497700  1
  O  O133  1  0.39304850  0.59916650  0.24375300  1
  O  O134  1  0.88000800  0.13559700  0.06602900  1
  O  O135  1  0.88446950  0.11698450  0.42517300  1
  O  O136  1  0.80824750  0.28763950  0.18131800  1
  O  O137  1  0.75996300  0.42795500  0.32518600  1
  O  O138  1  0.67020400  0.58676900  0.66215500  1
  O  O139  1  0.33096600  0.58691400  0.83327500  1
  O  O140  1  0.73845300  0.35708400  0.67628200  1
  O  O141  1  0.88000800  0.86440300  0.56602900  1
  O  O142  1  0.12138050  0.13646150  0.43409200  1
  O  O143  1  0.26239600  0.64381000  0.32105200  1
  O  O144  1  0.67020400  0.41323100  0.16215500  1
  O  O145  1  0.60967250  0.59388450  0.25895000  1
  O  O146  1  0.33096600  0.41308600  0.33327500  1
  O  O147  1  0.23856800  0.57217600  0.67448700  1
  O  O148  1  0.19367650  0.71324150  0.81856200  1
  O  O149  1  0.12138050  0.86353850  0.93409200  1
  O  O150  1  0.11210950  0.87866850  0.58060700  1
  O  O151  1  0.60967250  0.40611550  0.75895000  1
  O  O152  1  0.12837900  0.78530800  0.33302600  1
  O  O153  1  0.23856800  0.42782400  0.17448700  1
  O  O154  1  0.26239600  0.35619000  0.82105200  1
  O  O155  1  0.16487850  0.65269250  0.17181500  1
  O  O156  1  0.16342250  0.50051850  0.52669300  1
  O  O157  1  0.16342250  0.49948150  0.02669300  1
  O  O158  1  0.19367650  0.28675850  0.31856200  1
  O  O159  1  0.08937450  0.57340650  0.67042400  1
  O  O160  1  0.16487850  0.34730750  0.67181500  1
  O  O161  1  0.04602150  0.69982650  0.82737000  1
  O  O162  1  0.99551150  0.79006950  0.25574600  1
  O  O163  1  0.00290750  0.76759350  0.07831700  1
  O  O164  1  0.04910550  0.56890650  0.32309100  1
  O  O165  1  0.08937450  0.42659350  0.17042400  1
  O  O166  1  0.12837900  0.21469200  0.83302600  1
  O  O167  1  0.04910550  0.43109350  0.82309100  1
  O  O168  1  0.11210950  0.12133150  0.08060700  1
  O  O169  1  0.04602150  0.30017350  0.32737000  1
  O  O170  1  0.00290750  0.23240650  0.57831700  1
  O  O171  1  0.99551150  0.20993050  0.75574600  1
