# generated using pymatgen
data_Li3Mn5(CuO6)2
_symmetry_space_group_name_H-M   'P 1'
_cell_length_a   5.33832832
_cell_length_b   8.86878716
_cell_length_c   9.75420782
_cell_angle_alpha   90.00000000
_cell_angle_beta   98.20932576
_cell_angle_gamma   90.00000000
_symmetry_Int_Tables_number   1
_chemical_formula_structural   Li3Mn5(CuO6)2
_chemical_formula_sum   'Li6 Mn10 Cu4 O24'
_cell_volume   457.07592333
_cell_formula_units_Z   2
loop_
 _symmetry_equiv_pos_site_id
 _symmetry_equiv_pos_as_xyz
  1  'x, y, z'
loop_
 _atom_site_type_symbol
 _atom_site_label
 _atom_site_symmetry_multiplicity
 _atom_site_fract_x
 _atom_site_fract_y
 _atom_site_fract_z
 _atom_site_occupancy
  Li  Li0  1  0.76850700  0.90802800  0.76366000  1
  Li  Li1  1  0.23149300  0.90802800  0.23634000  1
  Li  Li2  1  0.50000000  0.58153600  0.00000000  1
  Li  Li3  1  0.26850700  0.40802800  0.76366000  1
  Li  Li4  1  0.73149300  0.40802800  0.23634000  1
  Li  Li5  1  0.00000000  0.08153600  0.00000000  1
  Mn  Mn6  1  0.50000000  0.42473900  0.50000000  1
  Mn  Mn7  1  0.50000000  0.08954400  0.50000000  1
  Mn  Mn8  1  0.50000000  0.91749000  0.00000000  1
  Mn  Mn9  1  0.74706700  0.74923200  0.24294600  1
  Mn  Mn10  1  0.25293300  0.74923200  0.75705400  1
  Mn  Mn11  1  0.00000000  0.92473900  0.50000000  1
  Mn  Mn12  1  0.00000000  0.58954400  0.50000000  1
  Mn  Mn13  1  0.00000000  0.41749000  0.00000000  1
  Mn  Mn14  1  0.24706700  0.24923200  0.24294600  1
  Mn  Mn15  1  0.75293300  0.24923200  0.75705400  1
  Cu  Cu16  1  0.50000000  0.23597400  0.00000000  1
  Cu  Cu17  1  0.50000000  0.75083900  0.50000000  1
  Cu  Cu18  1  0.00000000  0.73597400  0.00000000  1
  Cu  Cu19  1  0.00000000  0.25083900  0.50000000  1
  O  O20  1  0.57309900  0.25912100  0.36745200  1
  O  O21  1  0.83715550  0.09394750  0.61142900  1
  O  O22  1  0.42690100  0.25912100  0.63254800  1
  O  O23  1  0.63308900  0.07962900  0.89302600  1
  O  O24  1  0.85355600  0.89073700  0.10530400  1
  O  O25  1  0.36691100  0.07962900  0.10697400  1
  O  O26  1  0.65267350  0.91534550  0.40032000  1
  O  O27  1  0.16284450  0.09394750  0.38857100  1
  O  O28  1  0.34732650  0.91534550  0.59968000  1
  O  O29  1  0.57635900  0.76690900  0.86778300  1
  O  O30  1  0.14644400  0.89073700  0.89469600  1
  O  O31  1  0.42364100  0.76690900  0.13221700  1
  O  O32  1  0.07309900  0.75912100  0.36745200  1
  O  O33  1  0.33715550  0.59394750  0.61142900  1
  O  O34  1  0.92690100  0.75912100  0.63254800  1
  O  O35  1  0.13308900  0.57962900  0.89302600  1
  O  O36  1  0.35355600  0.39073700  0.10530400  1
  O  O37  1  0.86691100  0.57962900  0.10697400  1
  O  O38  1  0.15267350  0.41534550  0.40032000  1
  O  O39  1  0.66284450  0.59394750  0.38857100  1
  O  O40  1  0.84732650  0.41534550  0.59968000  1
  O  O41  1  0.07635900  0.26690900  0.86778300  1
  O  O42  1  0.64644400  0.39073700  0.89469600  1
  O  O43  1  0.92364100  0.26690900  0.13221700  1
