# generated using pymatgen
data_SrPuO4
_symmetry_space_group_name_H-M   'P 1'
_cell_length_a   3.95108191
_cell_length_b   3.95108191
_cell_length_c   18.47512952
_cell_angle_alpha   90.00000000
_cell_angle_beta   90.00000000
_cell_angle_gamma   120.00000000
_symmetry_Int_Tables_number   1
_chemical_formula_structural   SrPuO4
_chemical_formula_sum   'Sr3 Pu3 O12'
_cell_volume   249.77570306
_cell_formula_units_Z   3
loop_
 _symmetry_equiv_pos_site_id
 _symmetry_equiv_pos_as_xyz
  1  'x, y, z'
loop_
 _atom_site_type_symbol
 _atom_site_label
 _atom_site_symmetry_multiplicity
 _atom_site_fract_x
 _atom_site_fract_y
 _atom_site_fract_z
 _atom_site_occupancy
  Sr  Sr0  1  0.33333333  0.66666667  0.16666667  1
  Sr  Sr1  1  1.00000000  1.00000000  0.50000000  1
  Sr  Sr2  1  0.66666667  0.33333333  0.83333333  1
  Pu  Pu3  1  0.00000000  0.00000000  0.00000000  1
  Pu  Pu4  1  0.66666667  0.33333333  0.33333333  1
  Pu  Pu5  1  0.33333333  0.66666667  0.66666667  1
  O  O6  1  0.33333333  0.66666667  0.30699467  1
  O  O7  1  0.33333333  0.66666667  0.02633867  1
  O  O8  1  0.00000000  0.00000000  0.10643700  1
  O  O9  1  0.66666667  0.33333333  0.22689633  1
  O  O10  1  0.00000000  0.00000000  0.64032800  1
  O  O11  1  0.00000000  0.00000000  0.35967200  1
  O  O12  1  0.66666667  0.33333333  0.43977033  1
  O  O13  1  0.33333333  0.66666667  0.56022967  1
  O  O14  1  0.66666667  0.33333333  0.97366133  1
  O  O15  1  0.66666667  0.33333333  0.69300533  1
  O  O16  1  0.33333333  0.66666667  0.77310367  1
  O  O17  1  0.00000000  0.00000000  0.89356300  1
