# generated using pymatgen
data_Li4V3P8O29
_symmetry_space_group_name_H-M   'P 1'
_cell_length_a   16.88957200
_cell_length_b   9.76326200
_cell_length_c   14.16685620
_cell_angle_alpha   90.00000000
_cell_angle_beta   90.38220641
_cell_angle_gamma   90.00000000
_symmetry_Int_Tables_number   1
_chemical_formula_structural   Li4V3P8O29
_chemical_formula_sum   'Li16 V12 P32 O116'
_cell_volume   2336.02459504
_cell_formula_units_Z   4
loop_
 _symmetry_equiv_pos_site_id
 _symmetry_equiv_pos_as_xyz
  1  'x, y, z'
loop_
 _atom_site_type_symbol
 _atom_site_label
 _atom_site_symmetry_multiplicity
 _atom_site_fract_x
 _atom_site_fract_y
 _atom_site_fract_z
 _atom_site_occupancy
  Li  Li0  1  0.37962100  0.71005800  0.43885000  1
  Li  Li1  1  0.45116600  0.78322900  0.94173900  1
  Li  Li2  1  0.37962100  0.28994200  0.93885000  1
  Li  Li3  1  0.55023250  0.78126350  0.55713600  1
  Li  Li4  1  0.45116600  0.21677100  0.44173900  1
  Li  Li5  1  0.55023250  0.21873650  0.05713600  1
  Li  Li6  1  0.51887150  0.52921650  0.00426000  1
  Li  Li7  1  0.51887150  0.47078350  0.50426000  1
  Li  Li8  1  0.87962100  0.21005800  0.43885000  1
  Li  Li9  1  0.95116600  0.28322900  0.94173900  1
  Li  Li10  1  0.87962100  0.78994200  0.93885000  1
  Li  Li11  1  0.05023250  0.28126350  0.55713600  1
  Li  Li12  1  0.95116600  0.71677100  0.44173900  1
  Li  Li13  1  0.05023250  0.71873650  0.05713600  1
  Li  Li14  1  0.01887150  0.02921650  0.00426000  1
  Li  Li15  1  0.01887150  0.97078350  0.50426000  1
  V  V16  1  0.50017100  0.93392800  0.75086100  1
  V  V17  1  0.50017100  0.06607200  0.25086100  1
  V  V18  1  0.21854450  0.21474050  0.25045200  1
  V  V19  1  0.77862050  0.78284550  0.74872600  1
  V  V20  1  0.21854450  0.78525950  0.75045200  1
  V  V21  1  0.77862050  0.21715450  0.24872600  1
  V  V22  1  0.00017100  0.43392800  0.75086100  1
  V  V23  1  0.00017100  0.56607200  0.25086100  1
  V  V24  1  0.71854450  0.71474050  0.25045200  1
  V  V25  1  0.27862050  0.28284550  0.74872600  1
  V  V26  1  0.71854450  0.28525950  0.75045200  1
  V  V27  1  0.27862050  0.71715450  0.24872600  1
  P  P28  1  0.15091350  0.93258950  0.16103900  1
  P  P29  1  0.15091350  0.06741050  0.66103900  1
  P  P30  1  0.38639450  0.69895950  0.65332200  1
  P  P31  1  0.33402700  0.00071900  0.86869900  1
  P  P32  1  0.33402700  0.99928100  0.36869900  1
  P  P33  1  0.45377050  0.76928050  0.15911100  1
  P  P34  1  0.54500350  0.76765450  0.33862900  1
  P  P35  1  0.38639450  0.30104050  0.15332200  1
  P  P36  1  0.61069000  0.69412700  0.84638200  1
  P  P37  1  0.45377050  0.23071950  0.65911100  1
  P  P38  1  0.54500350  0.23234550  0.83862900  1
  P  P39  1  0.66600900  0.00194100  0.63208400  1
  P  P40  1  0.66600900  0.99805900  0.13208400  1
  P  P41  1  0.61069000  0.30587300  0.34638200  1
  P  P42  1  0.84822950  0.93125650  0.33716400  1
  P  P43  1  0.84822950  0.06874350  0.83716400  1
  P  P44  1  0.65091350  0.43258950  0.16103900  1
  P  P45  1  0.65091350  0.56741050  0.66103900  1
  P  P46  1  0.88639450  0.19895950  0.65332200  1
  P  P47  1  0.83402700  0.50071900  0.86869900  1
  P  P48  1  0.83402700  0.49928100  0.36869900  1
  P  P49  1  0.95377050  0.26928050  0.15911100  1
  P  P50  1  0.04500350  0.26765450  0.33862900  1
  P  P51  1  0.88639450  0.80104050  0.15332200  1
  P  P52  1  0.11069000  0.19412700  0.84638200  1
  P  P53  1  0.95377050  0.73071950  0.65911100  1
  P  P54  1  0.04500350  0.73234550  0.83862900  1
  P  P55  1  0.16600900  0.50194100  0.63208400  1
  P  P56  1  0.16600900  0.49805900  0.13208400  1
  P  P57  1  0.11069000  0.80587300  0.34638200  1
  P  P58  1  0.34822950  0.43125650  0.33716400  1
  P  P59  1  0.34822950  0.56874350  0.83716400  1
  O  O60  1  0.60267300  0.39133100  0.43205300  1
  O  O61  1  0.17170900  0.91377300  0.66569000  1
  O  O62  1  0.60267300  0.60866900  0.93205300  1
  O  O63  1  0.17170900  0.08622700  0.16569000  1
  O  O64  1  0.22891500  0.84793800  0.17150600  1
  O  O65  1  0.26023000  0.92872400  0.82063300  1
  O  O66  1  0.30868450  0.77849950  0.67209800  1
  O  O67  1  0.40201550  0.60807650  0.91692500  1
  O  O68  1  0.36731400  0.71728100  0.17210400  1
  O  O69  1  0.26023000  0.07127600  0.32063300  1
  O  O70  1  0.22891500  0.15206200  0.67150600  1
  O  O71  1  0.33589050  0.84957050  0.32775200  1
  O  O72  1  0.33411500  0.00020700  0.97378700  1
  O  O73  1  0.33411500  0.99979300  0.47378700  1
  O  O74  1  0.40740300  0.91954300  0.82989200  1
  O  O75  1  0.30868450  0.22150050  0.17209800  1
  O  O76  1  0.33589050  0.15042950  0.82775200  1
  O  O77  1  0.45847250  0.79817850  0.66297600  1
  O  O78  1  0.50089900  0.70225300  0.24804600  1
  O  O79  1  0.50309300  0.72356000  0.42746900  1
  O  O80  1  0.48733550  0.71758650  0.06862300  1
  O  O81  1  0.45617100  0.92417400  0.17186400  1
  O  O82  1  0.40740300  0.08045700  0.32989200  1
  O  O83  1  0.54260950  0.80098650  0.83919200  1
  O  O84  1  0.45617100  0.07582600  0.67186400  1
  O  O85  1  0.36731400  0.28271900  0.67210400  1
  O  O86  1  0.09997050  0.09860850  0.75368800  1
  O  O87  1  0.60104650  0.60484850  0.57701400  1
  O  O88  1  0.40201550  0.39192350  0.41692500  1
  O  O89  1  0.63038900  0.71285100  0.33374100  1
  O  O90  1  0.54482350  0.92532350  0.32626400  1
  O  O91  1  0.45847250  0.20182150  0.16297600  1
  O  O92  1  0.59261700  0.92054300  0.66788600  1
  O  O93  1  0.54482350  0.07467650  0.82626400  1
  O  O94  1  0.50309300  0.27644000  0.92746900  1
  O  O95  1  0.48733550  0.28241350  0.56862300  1
  O  O96  1  0.50089900  0.29774700  0.74804600  1
  O  O97  1  0.54260950  0.19901350  0.33919200  1
  O  O98  1  0.66724050  0.85340750  0.18035900  1
  O  O99  1  0.69149600  0.76763300  0.83114000  1
  O  O100  1  0.59261700  0.07945700  0.16788600  1
  O  O101  1  0.67198850  0.99933250  0.02778000  1
  O  O102  1  0.67198850  0.00066750  0.52778000  1
  O  O103  1  0.66724050  0.14659250  0.68035900  1
  O  O104  1  0.77099150  0.84626950  0.32833900  1
  O  O105  1  0.73913850  0.92619350  0.68237400  1
  O  O106  1  0.63038900  0.28714900  0.83374100  1
  O  O107  1  0.09997050  0.90139150  0.25368800  1
  O  O108  1  0.60104650  0.39515150  0.07701400  1
  O  O109  1  0.69149600  0.23236700  0.33114000  1
  O  O110  1  0.73913850  0.07380650  0.18237400  1
  O  O111  1  0.77099150  0.15373050  0.82833900  1
  O  O112  1  0.82842850  0.91319450  0.83916000  1
  O  O113  1  0.38902500  0.37424100  0.06099400  1
  O  O114  1  0.89502750  0.90888150  0.23852300  1
  O  O115  1  0.82842850  0.08680550  0.33916000  1
  O  O116  1  0.38902500  0.62575900  0.56099400  1
  O  O117  1  0.89502750  0.09111850  0.73852300  1
  O  O118  1  0.10267300  0.89133100  0.43205300  1
  O  O119  1  0.67170900  0.41377300  0.66569000  1
  O  O120  1  0.10267300  0.10866900  0.93205300  1
  O  O121  1  0.67170900  0.58622700  0.16569000  1
  O  O122  1  0.72891500  0.34793800  0.17150600  1
  O  O123  1  0.76023000  0.42872400  0.82063300  1
  O  O124  1  0.80868450  0.27849950  0.67209800  1
  O  O125  1  0.90201550  0.10807650  0.91692500  1
  O  O126  1  0.86731400  0.21728100  0.17210400  1
  O  O127  1  0.76023000  0.57127600  0.32063300  1
  O  O128  1  0.72891500  0.65206200  0.67150600  1
  O  O129  1  0.83589050  0.34957050  0.32775200  1
  O  O130  1  0.83411500  0.50020700  0.97378700  1
  O  O131  1  0.83411500  0.49979300  0.47378700  1
  O  O132  1  0.90740300  0.41954300  0.82989200  1
  O  O133  1  0.80868450  0.72150050  0.17209800  1
  O  O134  1  0.83589050  0.65042950  0.82775200  1
  O  O135  1  0.95847250  0.29817850  0.66297600  1
  O  O136  1  0.00089900  0.20225300  0.24804600  1
  O  O137  1  0.00309300  0.22356000  0.42746900  1
  O  O138  1  0.98733550  0.21758650  0.06862300  1
  O  O139  1  0.95617100  0.42417400  0.17186400  1
  O  O140  1  0.90740300  0.58045700  0.32989200  1
  O  O141  1  0.04260950  0.30098650  0.83919200  1
  O  O142  1  0.95617100  0.57582600  0.67186400  1
  O  O143  1  0.86731400  0.78271900  0.67210400  1
  O  O144  1  0.59997050  0.59860850  0.75368800  1
  O  O145  1  0.10104650  0.10484850  0.57701400  1
  O  O146  1  0.90201550  0.89192350  0.41692500  1
  O  O147  1  0.13038900  0.21285100  0.33374100  1
  O  O148  1  0.04482350  0.42532350  0.32626400  1
  O  O149  1  0.95847250  0.70182150  0.16297600  1
  O  O150  1  0.09261700  0.42054300  0.66788600  1
  O  O151  1  0.04482350  0.57467650  0.82626400  1
  O  O152  1  0.00309300  0.77644000  0.92746900  1
  O  O153  1  0.98733550  0.78241350  0.56862300  1
  O  O154  1  0.00089900  0.79774700  0.74804600  1
  O  O155  1  0.04260950  0.69901350  0.33919200  1
  O  O156  1  0.16724050  0.35340750  0.18035900  1
  O  O157  1  0.19149600  0.26763300  0.83114000  1
  O  O158  1  0.09261700  0.57945700  0.16788600  1
  O  O159  1  0.17198850  0.49933250  0.02778000  1
  O  O160  1  0.17198850  0.50066750  0.52778000  1
  O  O161  1  0.16724050  0.64659250  0.68035900  1
  O  O162  1  0.27099150  0.34626950  0.32833900  1
  O  O163  1  0.23913850  0.42619350  0.68237400  1
  O  O164  1  0.13038900  0.78714900  0.83374100  1
  O  O165  1  0.59997050  0.40139150  0.25368800  1
  O  O166  1  0.10104650  0.89515150  0.07701400  1
  O  O167  1  0.19149600  0.73236700  0.33114000  1
  O  O168  1  0.23913850  0.57380650  0.18237400  1
  O  O169  1  0.27099150  0.65373050  0.82833900  1
  O  O170  1  0.32842850  0.41319450  0.83916000  1
  O  O171  1  0.88902500  0.87424100  0.06099400  1
  O  O172  1  0.39502750  0.40888150  0.23852300  1
  O  O173  1  0.32842850  0.58680550  0.33916000  1
  O  O174  1  0.88902500  0.12575900  0.56099400  1
  O  O175  1  0.39502750  0.59111850  0.73852300  1
