# generated using pymatgen
data_Fe5O7F3
_symmetry_space_group_name_H-M   'P 1'
_cell_length_a   6.68505600
_cell_length_b   6.51208800
_cell_length_c   15.26319089
_cell_angle_alpha   90.00000000
_cell_angle_beta   90.09921815
_cell_angle_gamma   90.00000000
_symmetry_Int_Tables_number   1
_chemical_formula_structural   Fe5O7F3
_chemical_formula_sum   'Fe20 O28 F12'
_cell_volume   664.46176400
_cell_formula_units_Z   4
loop_
 _symmetry_equiv_pos_site_id
 _symmetry_equiv_pos_as_xyz
  1  'x, y, z'
loop_
 _atom_site_type_symbol
 _atom_site_label
 _atom_site_symmetry_multiplicity
 _atom_site_fract_x
 _atom_site_fract_y
 _atom_site_fract_z
 _atom_site_occupancy
  Fe  Fe0  1  0.02372550  0.99091150  0.29380000  1
  Fe  Fe1  1  0.02134950  0.99764350  0.09888900  1
  Fe  Fe2  1  0.97865050  0.99764350  0.90111100  1
  Fe  Fe3  1  0.97627450  0.99091150  0.70620000  1
  Fe  Fe4  1  0.50000000  0.48513200  0.50000000  1
  Fe  Fe5  1  0.48593750  0.99491750  0.20083600  1
  Fe  Fe6  1  0.51406250  0.99491750  0.79916400  1
  Fe  Fe7  1  0.50000000  0.99790000  0.00000000  1
  Fe  Fe8  1  0.50611250  0.01907250  0.59551800  1
  Fe  Fe9  1  0.49388750  0.01907250  0.40448200  1
  Fe  Fe10  1  0.52372550  0.49091150  0.29380000  1
  Fe  Fe11  1  0.52134950  0.49764350  0.09888900  1
  Fe  Fe12  1  0.47865050  0.49764350  0.90111100  1
  Fe  Fe13  1  0.47627450  0.49091150  0.70620000  1
  Fe  Fe14  1  0.00000000  0.98513200  0.50000000  1
  Fe  Fe15  1  0.98593750  0.49491750  0.20083600  1
  Fe  Fe16  1  0.01406250  0.49491750  0.79916400  1
  Fe  Fe17  1  0.00000000  0.49790000  0.00000000  1
  Fe  Fe18  1  0.00611250  0.51907250  0.59551800  1
  Fe  Fe19  1  0.99388750  0.51907250  0.40448200  1
  O  O20  1  0.50787650  0.29911450  0.19531700  1
  O  O21  1  0.50000000  0.30325800  0.00000000  1
  O  O22  1  0.49212350  0.29911450  0.80468300  1
  O  O23  1  0.49403650  0.31503550  0.60387000  1
  O  O24  1  0.50596350  0.31503550  0.39613000  1
  O  O25  1  0.68256600  0.99568700  0.90377400  1
  O  O26  1  0.68382150  0.00196650  0.69788800  1
  O  O27  1  0.69901150  0.00669650  0.49803000  1
  O  O28  1  0.31617850  0.00196650  0.30211200  1
  O  O29  1  0.31743400  0.99568700  0.09622600  1
  O  O30  1  0.30098850  0.00669650  0.50197000  1
  O  O31  1  0.50768250  0.69115750  0.19807100  1
  O  O32  1  0.49231750  0.69115750  0.80192900  1
  O  O33  1  0.50000000  0.69114900  0.00000000  1
  O  O34  1  0.00787650  0.79911450  0.19531700  1
  O  O35  1  0.00000000  0.80325800  0.00000000  1
  O  O36  1  0.99212350  0.79911450  0.80468300  1
  O  O37  1  0.99403650  0.81503550  0.60387000  1
  O  O38  1  0.00596350  0.81503550  0.39613000  1
  O  O39  1  0.18256600  0.49568700  0.90377400  1
  O  O40  1  0.18382150  0.50196650  0.69788800  1
  O  O41  1  0.19901150  0.50669650  0.49803000  1
  O  O42  1  0.81617850  0.50196650  0.30211200  1
  O  O43  1  0.81743400  0.49568700  0.09622600  1
  O  O44  1  0.80098850  0.50669650  0.50197000  1
  O  O45  1  0.00768250  0.19115750  0.19807100  1
  O  O46  1  0.99231750  0.19115750  0.80192900  1
  O  O47  1  0.00000000  0.19114900  0.00000000  1
  F  F48  1  0.70357850  0.00017350  0.30006300  1
  F  F49  1  0.70235250  0.99671350  0.10152200  1
  F  F50  1  0.29764750  0.99671350  0.89847800  1
  F  F51  1  0.29642150  0.00017350  0.69993700  1
  F  F52  1  0.50342650  0.70219050  0.39787900  1
  F  F53  1  0.49657350  0.70219050  0.60212100  1
  F  F54  1  0.20357850  0.50017350  0.30006300  1
  F  F55  1  0.20235250  0.49671350  0.10152200  1
  F  F56  1  0.79764750  0.49671350  0.89847800  1
  F  F57  1  0.79642150  0.50017350  0.69993700  1
  F  F58  1  0.00342650  0.20219050  0.39787900  1
  F  F59  1  0.99657350  0.20219050  0.60212100  1
