# generated using pymatgen
data_LiNi(PO3)3
_symmetry_space_group_name_H-M   'P 1'
_cell_length_a   6.41980021
_cell_length_b   6.41980021
_cell_length_c   9.65954200
_cell_angle_alpha   90.00000000
_cell_angle_beta   90.00000000
_cell_angle_gamma   120.00000000
_symmetry_Int_Tables_number   1
_chemical_formula_structural   LiNi(PO3)3
_chemical_formula_sum   'Li2 Ni2 P6 O18'
_cell_volume   344.77057467
_cell_formula_units_Z   2
loop_
 _symmetry_equiv_pos_site_id
 _symmetry_equiv_pos_as_xyz
  1  'x, y, z'
loop_
 _atom_site_type_symbol
 _atom_site_label
 _atom_site_symmetry_multiplicity
 _atom_site_fract_x
 _atom_site_fract_y
 _atom_site_fract_z
 _atom_site_occupancy
  Li  Li0  1  0.00000000  0.00000000  0.00000000  1
  Li  Li1  1  0.00000000  0.00000000  0.50000000  1
  Ni  Ni2  1  0.66666667  0.33333333  0.00000000  1
  Ni  Ni3  1  0.66666667  0.33333333  0.50000000  1
  P  P4  1  0.36573300  0.41727600  0.25000000  1
  P  P5  1  0.58272400  0.63426700  0.75000000  1
  P  P6  1  0.36573300  0.94845700  0.75000000  1
  P  P7  1  0.58272400  0.94845700  0.25000000  1
  P  P8  1  0.05154300  0.63426700  0.25000000  1
  P  P9  1  0.05154300  0.41727600  0.75000000  1
  O  O10  1  0.57175100  0.87729100  0.75000000  1
  O  O11  1  0.57175100  0.69446000  0.25000000  1
  O  O12  1  0.12270900  0.42824900  0.25000000  1
  O  O13  1  0.30554000  0.42824900  0.75000000  1
  O  O14  1  0.12270900  0.69446000  0.75000000  1
  O  O15  1  0.30554000  0.87729100  0.25000000  1
  O  O16  1  0.37373600  0.30331300  0.38454500  1
  O  O17  1  0.37373600  0.30331300  0.11545500  1
  O  O18  1  0.69668700  0.62626400  0.88454500  1
  O  O19  1  0.69668700  0.62626400  0.61545500  1
  O  O20  1  0.37373600  0.07042300  0.61545500  1
  O  O21  1  0.37373600  0.07042300  0.88454500  1
  O  O22  1  0.69668700  0.07042300  0.38454500  1
  O  O23  1  0.69668700  0.07042300  0.11545500  1
  O  O24  1  0.92957700  0.62626400  0.11545500  1
  O  O25  1  0.92957700  0.62626400  0.38454500  1
  O  O26  1  0.92957700  0.30331300  0.88454500  1
  O  O27  1  0.92957700  0.30331300  0.61545500  1
