# generated using pymatgen
data_LiMn3(P3O10)2
_symmetry_space_group_name_H-M   'P 1'
_cell_length_a   10.31298000
_cell_length_b   13.80001200
_cell_length_c   12.31518200
_cell_angle_alpha   90.00000000
_cell_angle_beta   90.00000000
_cell_angle_gamma   90.00000000
_symmetry_Int_Tables_number   1
_chemical_formula_structural   LiMn3(P3O10)2
_chemical_formula_sum   'Li4 Mn12 P24 O80'
_cell_volume   1752.68743822
_cell_formula_units_Z   4
loop_
 _symmetry_equiv_pos_site_id
 _symmetry_equiv_pos_as_xyz
  1  'x, y, z'
loop_
 _atom_site_type_symbol
 _atom_site_label
 _atom_site_symmetry_multiplicity
 _atom_site_fract_x
 _atom_site_fract_y
 _atom_site_fract_z
 _atom_site_occupancy
  Li  Li0  1  0.10466200  0.00000000  0.00000000  1
  Li  Li1  1  0.60466200  0.00000000  0.50000000  1
  Li  Li2  1  0.60466200  0.50000000  0.00000000  1
  Li  Li3  1  0.10466200  0.50000000  0.50000000  1
  Mn  Mn4  1  0.38010900  0.00000000  0.00000000  1
  Mn  Mn5  1  0.54706200  0.22341500  0.78688400  1
  Mn  Mn6  1  0.54706200  0.77658500  0.21311600  1
  Mn  Mn7  1  0.54706200  0.27658500  0.28688400  1
  Mn  Mn8  1  0.54706200  0.72341500  0.71311600  1
  Mn  Mn9  1  0.88010900  0.00000000  0.50000000  1
  Mn  Mn10  1  0.88010900  0.50000000  0.00000000  1
  Mn  Mn11  1  0.04706200  0.72341500  0.78688400  1
  Mn  Mn12  1  0.04706200  0.27658500  0.21311600  1
  Mn  Mn13  1  0.04706200  0.77658500  0.28688400  1
  Mn  Mn14  1  0.04706200  0.22341500  0.71311600  1
  Mn  Mn15  1  0.38010900  0.50000000  0.50000000  1
  P  P16  1  0.27281850  0.86498250  0.69637500  1
  P  P17  1  0.27281850  0.13501750  0.30362500  1
  P  P18  1  0.28852400  0.93216000  0.21824400  1
  P  P19  1  0.28852400  0.06784000  0.78175600  1
  P  P20  1  0.56588650  0.19209250  0.05354000  1
  P  P21  1  0.56588650  0.80790750  0.94646000  1
  P  P22  1  0.56588650  0.30790750  0.55354000  1
  P  P23  1  0.56588650  0.69209250  0.44646000  1
  P  P24  1  0.77281850  0.13501750  0.19637500  1
  P  P25  1  0.77281850  0.86498250  0.80362500  1
  P  P26  1  0.78852400  0.06784000  0.71824400  1
  P  P27  1  0.78852400  0.93216000  0.28175600  1
  P  P28  1  0.77281850  0.36498250  0.69637500  1
  P  P29  1  0.77281850  0.63501750  0.30362500  1
  P  P30  1  0.78852400  0.43216000  0.21824400  1
  P  P31  1  0.78852400  0.56784000  0.78175600  1
  P  P32  1  0.06588650  0.69209250  0.05354000  1
  P  P33  1  0.06588650  0.30790750  0.94646000  1
  P  P34  1  0.06588650  0.80790750  0.55354000  1
  P  P35  1  0.06588650  0.19209250  0.44646000  1
  P  P36  1  0.27281850  0.63501750  0.19637500  1
  P  P37  1  0.27281850  0.36498250  0.80362500  1
  P  P38  1  0.28852400  0.56784000  0.71824400  1
  P  P39  1  0.28852400  0.43216000  0.28175600  1
  O  O40  1  0.17073750  0.84342250  0.77986700  1
  O  O41  1  0.17073750  0.15657750  0.22013300  1
  O  O42  1  0.20599750  0.14196350  0.72478400  1
  O  O43  1  0.20599750  0.85803650  0.27521600  1
  O  O44  1  0.21472900  0.84399000  0.57691100  1
  O  O45  1  0.21472900  0.15601000  0.42308900  1
  O  O46  1  0.23152300  0.02659700  0.88938300  1
  O  O47  1  0.23152300  0.97340300  0.11061700  1
  O  O48  1  0.29869600  0.02023500  0.30579200  1
  O  O49  1  0.29869600  0.97976500  0.69420800  1
  O  O50  1  0.40283150  0.68273650  0.20125000  1
  O  O51  1  0.40283150  0.81726350  0.70125000  1
  O  O52  1  0.40283150  0.31726350  0.79875000  1
  O  O53  1  0.40283150  0.18273650  0.29875000  1
  O  O54  1  0.42702350  0.89981450  0.19206900  1
  O  O55  1  0.42702350  0.10018550  0.80793100  1
  O  O56  1  0.42702350  0.60018550  0.69206900  1
  O  O57  1  0.42702350  0.39981450  0.30793100  1
  O  O58  1  0.47774600  0.89448200  0.92948400  1
  O  O59  1  0.47774600  0.60551800  0.42948400  1
  O  O60  1  0.47774600  0.39448200  0.57051600  1
  O  O61  1  0.47774600  0.10551800  0.07051600  1
  O  O62  1  0.53455050  0.77700750  0.36831900  1
  O  O63  1  0.53455050  0.22299250  0.63168100  1
  O  O64  1  0.53455050  0.72299250  0.86831900  1
  O  O65  1  0.53455050  0.27700750  0.13168100  1
  O  O66  1  0.57081650  0.73549350  0.55895800  1
  O  O67  1  0.57081650  0.23549350  0.94104200  1
  O  O68  1  0.57081650  0.26450650  0.44104200  1
  O  O69  1  0.57081650  0.76450650  0.05895800  1
  O  O70  1  0.67073750  0.15657750  0.27986700  1
  O  O71  1  0.67073750  0.84342250  0.72013300  1
  O  O72  1  0.70599750  0.14196350  0.77521600  1
  O  O73  1  0.70599750  0.85803650  0.22478400  1
  O  O74  1  0.71472900  0.84399000  0.92308900  1
  O  O75  1  0.71472900  0.15601000  0.07691100  1
  O  O76  1  0.73152300  0.97340300  0.38938300  1
  O  O77  1  0.73152300  0.02659700  0.61061700  1
  O  O78  1  0.79869600  0.97976500  0.80579200  1
  O  O79  1  0.79869600  0.02023500  0.19420800  1
  O  O80  1  0.67073750  0.34342250  0.77986700  1
  O  O81  1  0.67073750  0.65657750  0.22013300  1
  O  O82  1  0.70599750  0.64196350  0.72478400  1
  O  O83  1  0.70599750  0.35803650  0.27521600  1
  O  O84  1  0.71472900  0.34399000  0.57691100  1
  O  O85  1  0.71472900  0.65601000  0.42308900  1
  O  O86  1  0.73152300  0.52659700  0.88938300  1
  O  O87  1  0.73152300  0.47340300  0.11061700  1
  O  O88  1  0.79869600  0.52023500  0.30579200  1
  O  O89  1  0.79869600  0.47976500  0.69420800  1
  O  O90  1  0.90283150  0.18273650  0.20125000  1
  O  O91  1  0.90283150  0.31726350  0.70125000  1
  O  O92  1  0.90283150  0.81726350  0.79875000  1
  O  O93  1  0.90283150  0.68273650  0.29875000  1
  O  O94  1  0.92702350  0.39981450  0.19206900  1
  O  O95  1  0.92702350  0.60018550  0.80793100  1
  O  O96  1  0.92702350  0.10018550  0.69206900  1
  O  O97  1  0.92702350  0.89981450  0.30793100  1
  O  O98  1  0.97774600  0.39448200  0.92948400  1
  O  O99  1  0.97774600  0.10551800  0.42948400  1
  O  O100  1  0.97774600  0.89448200  0.57051600  1
  O  O101  1  0.97774600  0.60551800  0.07051600  1
  O  O102  1  0.03455050  0.27700750  0.36831900  1
  O  O103  1  0.03455050  0.72299250  0.63168100  1
  O  O104  1  0.03455050  0.22299250  0.86831900  1
  O  O105  1  0.03455050  0.77700750  0.13168100  1
  O  O106  1  0.07081650  0.23549350  0.55895800  1
  O  O107  1  0.07081650  0.73549350  0.94104200  1
  O  O108  1  0.07081650  0.76450650  0.44104200  1
  O  O109  1  0.07081650  0.26450650  0.05895800  1
  O  O110  1  0.17073750  0.65657750  0.27986700  1
  O  O111  1  0.17073750  0.34342250  0.72013300  1
  O  O112  1  0.20599750  0.64196350  0.77521600  1
  O  O113  1  0.20599750  0.35803650  0.22478400  1
  O  O114  1  0.21472900  0.34399000  0.92308900  1
  O  O115  1  0.21472900  0.65601000  0.07691100  1
  O  O116  1  0.23152300  0.47340300  0.38938300  1
  O  O117  1  0.23152300  0.52659700  0.61061700  1
  O  O118  1  0.29869600  0.47976500  0.80579200  1
  O  O119  1  0.29869600  0.52023500  0.19420800  1
