# generated using pymatgen
data_Li2Cu2F7
_symmetry_space_group_name_H-M   'P 1'
_cell_length_a   10.03184400
_cell_length_b   10.03184400
_cell_length_c   10.03184400
_cell_angle_alpha   90.00000000
_cell_angle_beta   90.00000000
_cell_angle_gamma   90.00000000
_symmetry_Int_Tables_number   1
_chemical_formula_structural   Li2Cu2F7
_chemical_formula_sum   'Li16 Cu16 F56'
_cell_volume   1009.58365350
_cell_formula_units_Z   8
loop_
 _symmetry_equiv_pos_site_id
 _symmetry_equiv_pos_as_xyz
  1  'x, y, z'
loop_
 _atom_site_type_symbol
 _atom_site_label
 _atom_site_symmetry_multiplicity
 _atom_site_fract_x
 _atom_site_fract_y
 _atom_site_fract_z
 _atom_site_occupancy
  Li  Li0  1  0.37500000  0.87500000  0.12500000  1
  Li  Li1  1  0.37500000  0.62500000  0.37500000  1
  Li  Li2  1  0.12500000  0.62500000  0.12500000  1
  Li  Li3  1  0.12500000  0.87500000  0.37500000  1
  Li  Li4  1  0.37500000  0.37500000  0.62500000  1
  Li  Li5  1  0.37500000  0.12500000  0.87500000  1
  Li  Li6  1  0.12500000  0.12500000  0.62500000  1
  Li  Li7  1  0.12500000  0.37500000  0.87500000  1
  Li  Li8  1  0.87500000  0.87500000  0.62500000  1
  Li  Li9  1  0.87500000  0.62500000  0.87500000  1
  Li  Li10  1  0.62500000  0.62500000  0.62500000  1
  Li  Li11  1  0.62500000  0.87500000  0.87500000  1
  Li  Li12  1  0.87500000  0.37500000  0.12500000  1
  Li  Li13  1  0.87500000  0.12500000  0.37500000  1
  Li  Li14  1  0.62500000  0.12500000  0.12500000  1
  Li  Li15  1  0.62500000  0.37500000  0.37500000  1
  Cu  Cu16  1  0.62500000  0.87500000  0.37500000  1
  Cu  Cu17  1  0.12500000  0.12500000  0.12500000  1
  Cu  Cu18  1  0.37500000  0.12500000  0.37500000  1
  Cu  Cu19  1  0.87500000  0.87500000  0.12500000  1
  Cu  Cu20  1  0.62500000  0.37500000  0.87500000  1
  Cu  Cu21  1  0.12500000  0.62500000  0.62500000  1
  Cu  Cu22  1  0.37500000  0.62500000  0.87500000  1
  Cu  Cu23  1  0.87500000  0.37500000  0.62500000  1
  Cu  Cu24  1  0.12500000  0.87500000  0.87500000  1
  Cu  Cu25  1  0.62500000  0.12500000  0.62500000  1
  Cu  Cu26  1  0.87500000  0.12500000  0.87500000  1
  Cu  Cu27  1  0.37500000  0.87500000  0.62500000  1
  Cu  Cu28  1  0.12500000  0.37500000  0.37500000  1
  Cu  Cu29  1  0.62500000  0.62500000  0.12500000  1
  Cu  Cu30  1  0.87500000  0.62500000  0.37500000  1
  Cu  Cu31  1  0.37500000  0.37500000  0.12500000  1
  F  F32  1  0.70379000  0.00000000  0.50000000  1
  F  F33  1  0.50000000  0.20379000  0.50000000  1
  F  F34  1  0.50000000  0.00000000  0.29621000  1
  F  F35  1  0.45379000  0.25000000  0.25000000  1
  F  F36  1  0.00000000  0.00000000  0.20379000  1
  F  F37  1  0.00000000  0.00000000  0.50000000  1
  F  F38  1  0.25000000  0.45379000  0.25000000  1
  F  F39  1  0.50000000  0.79621000  0.50000000  1
  F  F40  1  0.25000000  0.75000000  0.25000000  1
  F  F41  1  0.25000000  0.25000000  0.04621000  1
  F  F42  1  0.29621000  0.00000000  0.50000000  1
  F  F43  1  0.25000000  0.25000000  0.45379000  1
  F  F44  1  0.25000000  0.04621000  0.25000000  1
  F  F45  1  0.04621000  0.25000000  0.25000000  1
  F  F46  1  0.70379000  0.50000000  0.00000000  1
  F  F47  1  0.50000000  0.70379000  0.00000000  1
  F  F48  1  0.50000000  0.50000000  0.79621000  1
  F  F49  1  0.45379000  0.75000000  0.75000000  1
  F  F50  1  0.00000000  0.50000000  0.70379000  1
  F  F51  1  0.00000000  0.50000000  0.00000000  1
  F  F52  1  0.25000000  0.95379000  0.75000000  1
  F  F53  1  0.50000000  0.29621000  0.00000000  1
  F  F54  1  0.25000000  0.25000000  0.75000000  1
  F  F55  1  0.25000000  0.75000000  0.54621000  1
  F  F56  1  0.29621000  0.50000000  0.00000000  1
  F  F57  1  0.25000000  0.75000000  0.95379000  1
  F  F58  1  0.25000000  0.54621000  0.75000000  1
  F  F59  1  0.04621000  0.75000000  0.75000000  1
  F  F60  1  0.20379000  0.00000000  0.00000000  1
  F  F61  1  0.00000000  0.20379000  0.00000000  1
  F  F62  1  0.00000000  0.00000000  0.79621000  1
  F  F63  1  0.95379000  0.25000000  0.75000000  1
  F  F64  1  0.50000000  0.00000000  0.70379000  1
  F  F65  1  0.50000000  0.00000000  0.00000000  1
  F  F66  1  0.75000000  0.45379000  0.75000000  1
  F  F67  1  0.00000000  0.79621000  0.00000000  1
  F  F68  1  0.75000000  0.75000000  0.75000000  1
  F  F69  1  0.75000000  0.25000000  0.54621000  1
  F  F70  1  0.79621000  0.00000000  0.00000000  1
  F  F71  1  0.75000000  0.25000000  0.95379000  1
  F  F72  1  0.75000000  0.04621000  0.75000000  1
  F  F73  1  0.54621000  0.25000000  0.75000000  1
  F  F74  1  0.20379000  0.50000000  0.50000000  1
  F  F75  1  0.00000000  0.70379000  0.50000000  1
  F  F76  1  0.00000000  0.50000000  0.29621000  1
  F  F77  1  0.95379000  0.75000000  0.25000000  1
  F  F78  1  0.50000000  0.50000000  0.20379000  1
  F  F79  1  0.50000000  0.50000000  0.50000000  1
  F  F80  1  0.75000000  0.95379000  0.25000000  1
  F  F81  1  0.00000000  0.29621000  0.50000000  1
  F  F82  1  0.75000000  0.25000000  0.25000000  1
  F  F83  1  0.75000000  0.75000000  0.04621000  1
  F  F84  1  0.79621000  0.50000000  0.50000000  1
  F  F85  1  0.75000000  0.75000000  0.45379000  1
  F  F86  1  0.75000000  0.54621000  0.25000000  1
  F  F87  1  0.54621000  0.75000000  0.25000000  1
