# generated using pymatgen
data_Sr17(Li2Hg3)3
_symmetry_space_group_name_H-M   'P 1'
_cell_length_a   16.66751000
_cell_length_b   16.66751000
_cell_length_c   16.66751000
_cell_angle_alpha   90.00000000
_cell_angle_beta   90.00000000
_cell_angle_gamma   90.00000000
_symmetry_Int_Tables_number   1
_chemical_formula_structural   Sr17(Li2Hg3)3
_chemical_formula_sum   'Sr68 Li24 Hg36'
_cell_volume   4630.33244297
_cell_formula_units_Z   4
loop_
 _symmetry_equiv_pos_site_id
 _symmetry_equiv_pos_as_xyz
  1  'x, y, z'
loop_
 _atom_site_type_symbol
 _atom_site_label
 _atom_site_symmetry_multiplicity
 _atom_site_fract_x
 _atom_site_fract_y
 _atom_site_fract_z
 _atom_site_occupancy
  Sr  Sr0  1  0.00000000  0.00000000  0.00000000  1
  Sr  Sr1  1  0.31832450  0.13053650  0.13053650  1
  Sr  Sr2  1  0.81832450  0.36946350  0.36946350  1
  Sr  Sr3  1  0.50000000  0.00000000  0.00000000  1
  Sr  Sr4  1  0.68167550  0.13053650  0.13053650  1
  Sr  Sr5  1  0.18167550  0.36946350  0.36946350  1
  Sr  Sr6  1  0.13053650  0.31832450  0.13053650  1
  Sr  Sr7  1  0.36946350  0.36946350  0.18167550  1
  Sr  Sr8  1  0.13053650  0.86946350  0.68167550  1
  Sr  Sr9  1  0.86946350  0.31832450  0.13053650  1
  Sr  Sr10  1  0.50000000  0.25000000  0.00000000  1
  Sr  Sr11  1  0.00000000  0.50000000  0.25000000  1
  Sr  Sr12  1  0.31832450  0.13053650  0.86946350  1
  Sr  Sr13  1  0.68167550  0.13053650  0.86946350  1
  Sr  Sr14  1  0.36946350  0.81832450  0.36946350  1
  Sr  Sr15  1  0.86946350  0.13053650  0.68167550  1
  Sr  Sr16  1  0.13053650  0.31832450  0.86946350  1
  Sr  Sr17  1  0.13053650  0.13053650  0.68167550  1
  Sr  Sr18  1  0.00000000  0.50000000  0.00000000  1
  Sr  Sr19  1  0.25000000  0.50000000  0.00000000  1
  Sr  Sr20  1  0.00000000  0.00000000  0.50000000  1
  Sr  Sr21  1  0.25000000  0.00000000  0.50000000  1
  Sr  Sr22  1  0.13053650  0.68167550  0.13053650  1
  Sr  Sr23  1  0.13053650  0.86946350  0.31832450  1
  Sr  Sr24  1  0.36946350  0.36946350  0.81832450  1
  Sr  Sr25  1  0.86946350  0.68167550  0.13053650  1
  Sr  Sr26  1  0.31832450  0.86946350  0.13053650  1
  Sr  Sr27  1  0.68167550  0.86946350  0.13053650  1
  Sr  Sr28  1  0.50000000  0.00000000  0.25000000  1
  Sr  Sr29  1  0.00000000  0.25000000  0.50000000  1
  Sr  Sr30  1  0.36946350  0.18167550  0.36946350  1
  Sr  Sr31  1  0.13053650  0.68167550  0.86946350  1
  Sr  Sr32  1  0.86946350  0.13053650  0.31832450  1
  Sr  Sr33  1  0.13053650  0.13053650  0.31832450  1
  Sr  Sr34  1  0.50000000  0.50000000  0.50000000  1
  Sr  Sr35  1  0.81832450  0.63053650  0.63053650  1
  Sr  Sr36  1  0.31832450  0.86946350  0.86946350  1
  Sr  Sr37  1  0.00000000  0.50000000  0.50000000  1
  Sr  Sr38  1  0.18167550  0.63053650  0.63053650  1
  Sr  Sr39  1  0.68167550  0.86946350  0.86946350  1
  Sr  Sr40  1  0.63053650  0.81832450  0.63053650  1
  Sr  Sr41  1  0.86946350  0.86946350  0.68167550  1
  Sr  Sr42  1  0.63053650  0.36946350  0.18167550  1
  Sr  Sr43  1  0.36946350  0.81832450  0.63053650  1
  Sr  Sr44  1  0.00000000  0.75000000  0.50000000  1
  Sr  Sr45  1  0.50000000  0.00000000  0.75000000  1
  Sr  Sr46  1  0.81832450  0.63053650  0.36946350  1
  Sr  Sr47  1  0.18167550  0.63053650  0.36946350  1
  Sr  Sr48  1  0.86946350  0.31832450  0.86946350  1
  Sr  Sr49  1  0.36946350  0.63053650  0.18167550  1
  Sr  Sr50  1  0.63053650  0.81832450  0.36946350  1
  Sr  Sr51  1  0.63053650  0.63053650  0.18167550  1
  Sr  Sr52  1  0.50000000  0.00000000  0.50000000  1
  Sr  Sr53  1  0.75000000  0.00000000  0.50000000  1
  Sr  Sr54  1  0.50000000  0.50000000  0.00000000  1
  Sr  Sr55  1  0.75000000  0.50000000  0.00000000  1
  Sr  Sr56  1  0.63053650  0.18167550  0.63053650  1
  Sr  Sr57  1  0.63053650  0.36946350  0.81832450  1
  Sr  Sr58  1  0.86946350  0.86946350  0.31832450  1
  Sr  Sr59  1  0.36946350  0.18167550  0.63053650  1
  Sr  Sr60  1  0.81832450  0.36946350  0.63053650  1
  Sr  Sr61  1  0.18167550  0.36946350  0.63053650  1
  Sr  Sr62  1  0.00000000  0.50000000  0.75000000  1
  Sr  Sr63  1  0.50000000  0.75000000  0.00000000  1
  Sr  Sr64  1  0.86946350  0.68167550  0.86946350  1
  Sr  Sr65  1  0.63053650  0.18167550  0.36946350  1
  Sr  Sr66  1  0.36946350  0.63053650  0.81832450  1
  Sr  Sr67  1  0.63053650  0.63053650  0.81832450  1
  Li  Li68  1  0.50000000  0.35203750  0.35203750  1
  Li  Li69  1  0.00000000  0.14796250  0.14796250  1
  Li  Li70  1  0.35203750  0.50000000  0.35203750  1
  Li  Li71  1  0.35203750  0.64796250  0.50000000  1
  Li  Li72  1  0.14796250  0.14796250  0.00000000  1
  Li  Li73  1  0.64796250  0.50000000  0.35203750  1
  Li  Li74  1  0.50000000  0.64796250  0.35203750  1
  Li  Li75  1  0.50000000  0.35203750  0.64796250  1
  Li  Li76  1  0.14796250  0.00000000  0.14796250  1
  Li  Li77  1  0.64796250  0.35203750  0.50000000  1
  Li  Li78  1  0.35203750  0.50000000  0.64796250  1
  Li  Li79  1  0.35203750  0.35203750  0.50000000  1
  Li  Li80  1  0.00000000  0.85203750  0.85203750  1
  Li  Li81  1  0.50000000  0.64796250  0.64796250  1
  Li  Li82  1  0.85203750  0.00000000  0.85203750  1
  Li  Li83  1  0.85203750  0.14796250  0.00000000  1
  Li  Li84  1  0.64796250  0.64796250  0.50000000  1
  Li  Li85  1  0.14796250  0.00000000  0.85203750  1
  Li  Li86  1  0.00000000  0.14796250  0.85203750  1
  Li  Li87  1  0.00000000  0.85203750  0.14796250  1
  Li  Li88  1  0.64796250  0.50000000  0.64796250  1
  Li  Li89  1  0.14796250  0.85203750  0.00000000  1
  Li  Li90  1  0.85203750  0.00000000  0.14796250  1
  Li  Li91  1  0.85203750  0.85203750  0.00000000  1
  Hg  Hg92  1  0.23116600  0.00000000  0.00000000  1
  Hg  Hg93  1  0.50000000  0.20467850  0.20467850  1
  Hg  Hg94  1  0.00000000  0.29532150  0.29532150  1
  Hg  Hg95  1  0.76883400  0.00000000  0.00000000  1
  Hg  Hg96  1  0.00000000  0.23116600  0.00000000  1
  Hg  Hg97  1  0.00000000  0.00000000  0.76883400  1
  Hg  Hg98  1  0.20467850  0.50000000  0.20467850  1
  Hg  Hg99  1  0.29532150  0.29532150  0.00000000  1
  Hg  Hg100  1  0.79532150  0.50000000  0.20467850  1
  Hg  Hg101  1  0.20467850  0.79532150  0.50000000  1
  Hg  Hg102  1  0.50000000  0.20467850  0.79532150  1
  Hg  Hg103  1  0.50000000  0.79532150  0.20467850  1
  Hg  Hg104  1  0.29532150  0.00000000  0.29532150  1
  Hg  Hg105  1  0.79532150  0.20467850  0.50000000  1
  Hg  Hg106  1  0.20467850  0.50000000  0.79532150  1
  Hg  Hg107  1  0.20467850  0.20467850  0.50000000  1
  Hg  Hg108  1  0.00000000  0.76883400  0.00000000  1
  Hg  Hg109  1  0.00000000  0.00000000  0.23116600  1
  Hg  Hg110  1  0.73116600  0.50000000  0.50000000  1
  Hg  Hg111  1  0.00000000  0.70467850  0.70467850  1
  Hg  Hg112  1  0.50000000  0.79532150  0.79532150  1
  Hg  Hg113  1  0.26883400  0.50000000  0.50000000  1
  Hg  Hg114  1  0.50000000  0.73116600  0.50000000  1
  Hg  Hg115  1  0.50000000  0.50000000  0.26883400  1
  Hg  Hg116  1  0.70467850  0.00000000  0.70467850  1
  Hg  Hg117  1  0.79532150  0.79532150  0.50000000  1
  Hg  Hg118  1  0.29532150  0.00000000  0.70467850  1
  Hg  Hg119  1  0.70467850  0.29532150  0.00000000  1
  Hg  Hg120  1  0.00000000  0.70467850  0.29532150  1
  Hg  Hg121  1  0.00000000  0.29532150  0.70467850  1
  Hg  Hg122  1  0.79532150  0.50000000  0.79532150  1
  Hg  Hg123  1  0.29532150  0.70467850  0.00000000  1
  Hg  Hg124  1  0.70467850  0.00000000  0.29532150  1
  Hg  Hg125  1  0.70467850  0.70467850  0.00000000  1
  Hg  Hg126  1  0.50000000  0.26883400  0.50000000  1
  Hg  Hg127  1  0.50000000  0.50000000  0.73116600  1
