# generated using pymatgen
data_Li3FeO4
_symmetry_space_group_name_H-M   'P 1'
_cell_length_a   8.23791400
_cell_length_b   8.23791400
_cell_length_c   8.23791400
_cell_angle_alpha   90.00000000
_cell_angle_beta   90.00000000
_cell_angle_gamma   90.00000000
_symmetry_Int_Tables_number   1
_chemical_formula_structural   Li3FeO4
_chemical_formula_sum   'Li24 Fe8 O32'
_cell_volume   559.05142838
_cell_formula_units_Z   8
loop_
 _symmetry_equiv_pos_site_id
 _symmetry_equiv_pos_as_xyz
  1  'x, y, z'
loop_
 _atom_site_type_symbol
 _atom_site_label
 _atom_site_symmetry_multiplicity
 _atom_site_fract_x
 _atom_site_fract_y
 _atom_site_fract_z
 _atom_site_occupancy
  Li  Li0  1  0.37854600  0.12721600  0.12721600  1
  Li  Li1  1  0.37278400  0.37278400  0.87854600  1
  Li  Li2  1  0.62145400  0.87278400  0.12721600  1
  Li  Li3  1  0.12721600  0.87278400  0.62145400  1
  Li  Li4  1  0.12721600  0.37854600  0.12721600  1
  Li  Li5  1  0.37278400  0.87854600  0.37278400  1
  Li  Li6  1  0.12721600  0.62145400  0.87278400  1
  Li  Li7  1  0.87278400  0.62145400  0.12721600  1
  Li  Li8  1  0.12721600  0.12721600  0.37854600  1
  Li  Li9  1  0.87854600  0.37278400  0.37278400  1
  Li  Li10  1  0.87278400  0.12721600  0.62145400  1
  Li  Li11  1  0.62145400  0.12721600  0.87278400  1
  Li  Li12  1  0.87854600  0.62721600  0.62721600  1
  Li  Li13  1  0.87278400  0.87278400  0.37854600  1
  Li  Li14  1  0.12145400  0.37278400  0.62721600  1
  Li  Li15  1  0.62721600  0.37278400  0.12145400  1
  Li  Li16  1  0.62721600  0.87854600  0.62721600  1
  Li  Li17  1  0.87278400  0.37854600  0.87278400  1
  Li  Li18  1  0.62721600  0.12145400  0.37278400  1
  Li  Li19  1  0.37278400  0.12145400  0.62721600  1
  Li  Li20  1  0.62721600  0.62721600  0.87854600  1
  Li  Li21  1  0.37854600  0.87278400  0.87278400  1
  Li  Li22  1  0.37278400  0.62721600  0.12145400  1
  Li  Li23  1  0.12145400  0.62721600  0.37278400  1
  Fe  Fe24  1  0.13226650  0.13226650  0.86773350  1
  Fe  Fe25  1  0.13226650  0.86773350  0.13226650  1
  Fe  Fe26  1  0.86773350  0.13226650  0.13226650  1
  Fe  Fe27  1  0.36773350  0.36773350  0.36773350  1
  Fe  Fe28  1  0.63226650  0.63226650  0.36773350  1
  Fe  Fe29  1  0.63226650  0.36773350  0.63226650  1
  Fe  Fe30  1  0.36773350  0.63226650  0.63226650  1
  Fe  Fe31  1  0.86773350  0.86773350  0.86773350  1
  O  O32  1  0.35148600  0.12325300  0.87674700  1
  O  O33  1  0.12325300  0.35148600  0.87674700  1
  O  O34  1  0.12325300  0.87674700  0.35148600  1
  O  O35  1  0.37674700  0.14851400  0.37674700  1
  O  O36  1  0.64851400  0.12325300  0.12325300  1
  O  O37  1  0.38793700  0.38793700  0.61206300  1
  O  O38  1  0.38793700  0.61206300  0.38793700  1
  O  O39  1  0.11206300  0.11206300  0.11206300  1
  O  O40  1  0.87674700  0.12325300  0.35148600  1
  O  O41  1  0.87674700  0.35148600  0.12325300  1
  O  O42  1  0.37674700  0.37674700  0.14851400  1
  O  O43  1  0.12325300  0.12325300  0.64851400  1
  O  O44  1  0.61206300  0.38793700  0.38793700  1
  O  O45  1  0.35148600  0.87674700  0.12325300  1
  O  O46  1  0.14851400  0.37674700  0.37674700  1
  O  O47  1  0.12325300  0.64851400  0.12325300  1
  O  O48  1  0.85148600  0.62325300  0.37674700  1
  O  O49  1  0.62325300  0.85148600  0.37674700  1
  O  O50  1  0.62325300  0.37674700  0.85148600  1
  O  O51  1  0.87674700  0.64851400  0.87674700  1
  O  O52  1  0.14851400  0.62325300  0.62325300  1
  O  O53  1  0.88793700  0.88793700  0.11206300  1
  O  O54  1  0.88793700  0.11206300  0.88793700  1
  O  O55  1  0.61206300  0.61206300  0.61206300  1
  O  O56  1  0.37674700  0.62325300  0.85148600  1
  O  O57  1  0.37674700  0.85148600  0.62325300  1
  O  O58  1  0.87674700  0.87674700  0.64851400  1
  O  O59  1  0.62325300  0.62325300  0.14851400  1
  O  O60  1  0.11206300  0.88793700  0.88793700  1
  O  O61  1  0.85148600  0.37674700  0.62325300  1
  O  O62  1  0.64851400  0.87674700  0.87674700  1
  O  O63  1  0.62325300  0.14851400  0.62325300  1
