# generated using pymatgen
data_La3NiBr3
_symmetry_space_group_name_H-M   'P 1'
_cell_length_a   12.22667800
_cell_length_b   12.22667800
_cell_length_c   11.61780000
_cell_angle_alpha   90.00000000
_cell_angle_beta   90.00000000
_cell_angle_gamma   90.00000000
_symmetry_Int_Tables_number   1
_chemical_formula_structural   La3NiBr3
_chemical_formula_sum   'La24 Ni8 Br24'
_cell_volume   1736.76414848
_cell_formula_units_Z   8
loop_
 _symmetry_equiv_pos_site_id
 _symmetry_equiv_pos_as_xyz
  1  'x, y, z'
loop_
 _atom_site_type_symbol
 _atom_site_label
 _atom_site_symmetry_multiplicity
 _atom_site_fract_x
 _atom_site_fract_y
 _atom_site_fract_z
 _atom_site_occupancy
  La  La0  1  0.38757100  0.11242900  0.75000000  1
  La  La1  1  0.61242900  0.88757100  0.75000000  1
  La  La2  1  0.88757100  0.88757100  0.50000000  1
  La  La3  1  0.11242900  0.11242900  0.50000000  1
  La  La4  1  0.63420050  0.12879450  0.52342750  1
  La  La5  1  0.86579950  0.37120550  0.02342750  1
  La  La6  1  0.63420050  0.37120550  0.22657250  1
  La  La7  1  0.86579950  0.12879450  0.72657250  1
  La  La8  1  0.87120550  0.36579950  0.47657250  1
  La  La9  1  0.62879450  0.13420050  0.97657250  1
  La  La10  1  0.62879450  0.36579950  0.77342750  1
  La  La11  1  0.87120550  0.13420050  0.27342750  1
  La  La12  1  0.88757100  0.61242900  0.25000000  1
  La  La13  1  0.11242900  0.38757100  0.25000000  1
  La  La14  1  0.38757100  0.38757100  0.00000000  1
  La  La15  1  0.61242900  0.61242900  0.00000000  1
  La  La16  1  0.13420050  0.62879450  0.02342750  1
  La  La17  1  0.36579950  0.87120550  0.52342750  1
  La  La18  1  0.13420050  0.87120550  0.72657250  1
  La  La19  1  0.36579950  0.62879450  0.22657250  1
  La  La20  1  0.37120550  0.86579950  0.97657250  1
  La  La21  1  0.12879450  0.63420050  0.47657250  1
  La  La22  1  0.12879450  0.86579950  0.27342750  1
  La  La23  1  0.37120550  0.63420050  0.77342750  1
  Ni  Ni24  1  0.62696150  0.12696150  0.75000000  1
  Ni  Ni25  1  0.87303850  0.37303850  0.25000000  1
  Ni  Ni26  1  0.12696150  0.87303850  0.50000000  1
  Ni  Ni27  1  0.87303850  0.12696150  0.50000000  1
  Ni  Ni28  1  0.12696150  0.62696150  0.25000000  1
  Ni  Ni29  1  0.37303850  0.87303850  0.75000000  1
  Ni  Ni30  1  0.62696150  0.37303850  0.00000000  1
  Ni  Ni31  1  0.37303850  0.62696150  0.00000000  1
  Br  Br32  1  0.61604000  0.38396000  0.50000000  1
  Br  Br33  1  0.38396000  0.61604000  0.50000000  1
  Br  Br34  1  0.61604000  0.11604000  0.25000000  1
  Br  Br35  1  0.88396000  0.38396000  0.75000000  1
  Br  Br36  1  0.62792850  0.87302450  0.01363650  1
  Br  Br37  1  0.87207150  0.62697550  0.51363650  1
  Br  Br38  1  0.12792850  0.12697550  0.23636350  1
  Br  Br39  1  0.37207150  0.37302450  0.73636350  1
  Br  Br40  1  0.12697550  0.37207150  0.98636350  1
  Br  Br41  1  0.37302450  0.12792850  0.48636350  1
  Br  Br42  1  0.87302450  0.87207150  0.76363650  1
  Br  Br43  1  0.62697550  0.62792850  0.26363650  1
  Br  Br44  1  0.11604000  0.88396000  0.00000000  1
  Br  Br45  1  0.88396000  0.11604000  0.00000000  1
  Br  Br46  1  0.11604000  0.61604000  0.75000000  1
  Br  Br47  1  0.38396000  0.88396000  0.25000000  1
  Br  Br48  1  0.12792850  0.37302450  0.51363650  1
  Br  Br49  1  0.37207150  0.12697550  0.01363650  1
  Br  Br50  1  0.62792850  0.62697550  0.73636350  1
  Br  Br51  1  0.87207150  0.87302450  0.23636350  1
  Br  Br52  1  0.62697550  0.87207150  0.48636350  1
  Br  Br53  1  0.87302450  0.62792850  0.98636350  1
  Br  Br54  1  0.37302450  0.37207150  0.26363650  1
  Br  Br55  1  0.12697550  0.12792850  0.76363650  1
