# generated using pymatgen
data_LiNi4(PO4)3
_symmetry_space_group_name_H-M   'P 1'
_cell_length_a   11.61401600
_cell_length_b   12.44505000
_cell_length_c   6.42161334
_cell_angle_alpha   90.00000000
_cell_angle_beta   115.75053038
_cell_angle_gamma   90.00000000
_symmetry_Int_Tables_number   1
_chemical_formula_structural   LiNi4(PO4)3
_chemical_formula_sum   'Li4 Ni16 P12 O48'
_cell_volume   835.98905647
_cell_formula_units_Z   4
loop_
 _symmetry_equiv_pos_site_id
 _symmetry_equiv_pos_as_xyz
  1  'x, y, z'
loop_
 _atom_site_type_symbol
 _atom_site_label
 _atom_site_symmetry_multiplicity
 _atom_site_fract_x
 _atom_site_fract_y
 _atom_site_fract_z
 _atom_site_occupancy
  Li  Li0  1  0.49776600  0.51873900  0.74879400  1
  Li  Li1  1  0.49776600  0.48126100  0.24879400  1
  Li  Li2  1  0.99776600  0.01873900  0.74879400  1
  Li  Li3  1  0.99776600  0.98126100  0.24879400  1
  Ni  Ni4  1  0.21487350  0.84009650  0.63075900  1
  Ni  Ni5  1  0.21487350  0.15990350  0.13075900  1
  Ni  Ni6  1  0.50103650  0.23739350  0.75252400  1
  Ni  Ni7  1  0.49070800  0.00804600  0.52312700  1
  Ni  Ni8  1  0.50103650  0.76260650  0.25252400  1
  Ni  Ni9  1  0.49070800  0.99195400  0.02312700  1
  Ni  Ni10  1  0.78298050  0.84129550  0.86532700  1
  Ni  Ni11  1  0.78298050  0.15870450  0.36532700  1
  Ni  Ni12  1  0.71487350  0.34009650  0.63075900  1
  Ni  Ni13  1  0.71487350  0.65990350  0.13075900  1
  Ni  Ni14  1  0.00103650  0.73739350  0.75252400  1
  Ni  Ni15  1  0.99070800  0.50804600  0.52312700  1
  Ni  Ni16  1  0.00103650  0.26260650  0.25252400  1
  Ni  Ni17  1  0.99070800  0.49195400  0.02312700  1
  Ni  Ni18  1  0.28298050  0.34129550  0.86532700  1
  Ni  Ni19  1  0.28298050  0.65870450  0.36532700  1
  P  P20  1  0.22874450  0.10596250  0.62786500  1
  P  P21  1  0.22874450  0.89403750  0.12786500  1
  P  P22  1  0.49914000  0.79823900  0.75078700  1
  P  P23  1  0.49914000  0.20176100  0.25078700  1
  P  P24  1  0.77018600  0.10821800  0.86934600  1
  P  P25  1  0.77018600  0.89178200  0.36934600  1
  P  P26  1  0.72874450  0.60596250  0.62786500  1
  P  P27  1  0.72874450  0.39403750  0.12786500  1
  P  P28  1  0.99914000  0.29823900  0.75078700  1
  P  P29  1  0.99914000  0.70176100  0.25078700  1
  P  P30  1  0.27018600  0.60821800  0.86934600  1
  P  P31  1  0.27018600  0.39178200  0.36934600  1
  O  O32  1  0.22256250  0.17678050  0.81971300  1
  O  O33  1  0.15425550  0.99958250  0.60034600  1
  O  O34  1  0.22256250  0.82321950  0.31971300  1
  O  O35  1  0.15425550  0.00041750  0.10034600  1
  O  O36  1  0.33690750  0.33180550  0.60439500  1
  O  O37  1  0.37689100  0.08731500  0.69605200  1
  O  O38  1  0.40052100  0.87760200  0.77368500  1
  O  O39  1  0.33690750  0.66819450  0.10439500  1
  O  O40  1  0.54060150  0.72577850  0.96703900  1
  O  O41  1  0.45886750  0.72703550  0.53265900  1
  O  O42  1  0.37689100  0.91268500  0.19605200  1
  O  O43  1  0.40052100  0.12239800  0.27368500  1
  O  O44  1  0.59526200  0.88124900  0.73220400  1
  O  O45  1  0.62300700  0.09483400  0.80470200  1
  O  O46  1  0.54060150  0.27422150  0.46703900  1
  O  O47  1  0.45886750  0.27296450  0.03265900  1
  O  O48  1  0.66347650  0.33324950  0.89450800  1
  O  O49  1  0.59526200  0.11875100  0.23220400  1
  O  O50  1  0.62300700  0.90516600  0.30470200  1
  O  O51  1  0.66347650  0.66675050  0.39450800  1
  O  O52  1  0.84272200  0.00050700  0.89714500  1
  O  O53  1  0.77952200  0.17758900  0.67824600  1
  O  O54  1  0.84272200  0.99949300  0.39714500  1
  O  O55  1  0.77952200  0.82241100  0.17824600  1
  O  O56  1  0.72256250  0.67678050  0.81971300  1
  O  O57  1  0.65425550  0.49958250  0.60034600  1
  O  O58  1  0.72256250  0.32321950  0.31971300  1
  O  O59  1  0.65425550  0.50041750  0.10034600  1
  O  O60  1  0.83690750  0.83180550  0.60439500  1
  O  O61  1  0.87689100  0.58731500  0.69605200  1
  O  O62  1  0.90052100  0.37760200  0.77368500  1
  O  O63  1  0.83690750  0.16819450  0.10439500  1
  O  O64  1  0.04060150  0.22577850  0.96703900  1
  O  O65  1  0.95886750  0.22703550  0.53265900  1
  O  O66  1  0.87689100  0.41268500  0.19605200  1
  O  O67  1  0.90052100  0.62239800  0.27368500  1
  O  O68  1  0.09526200  0.38124900  0.73220400  1
  O  O69  1  0.12300700  0.59483400  0.80470200  1
  O  O70  1  0.04060150  0.77422150  0.46703900  1
  O  O71  1  0.95886750  0.77296450  0.03265900  1
  O  O72  1  0.16347650  0.83324950  0.89450800  1
  O  O73  1  0.09526200  0.61875100  0.23220400  1
  O  O74  1  0.12300700  0.40516600  0.30470200  1
  O  O75  1  0.16347650  0.16675050  0.39450800  1
  O  O76  1  0.34272200  0.50050700  0.89714500  1
  O  O77  1  0.27952200  0.67758900  0.67824600  1
  O  O78  1  0.34272200  0.49949300  0.39714500  1
  O  O79  1  0.27952200  0.32241100  0.17824600  1
