# generated using pymatgen
data_Li4Co3NiO8
_symmetry_space_group_name_H-M   'P 1'
_cell_length_a   5.71021558
_cell_length_b   5.71021558
_cell_length_c   14.21261134
_cell_angle_alpha   90.00000000
_cell_angle_beta   90.00000000
_cell_angle_gamma   120.00000000
_symmetry_Int_Tables_number   1
_chemical_formula_structural   Li4Co3NiO8
_chemical_formula_sum   'Li12 Co9 Ni3 O24'
_cell_volume   401.33729657
_cell_formula_units_Z   3
loop_
 _symmetry_equiv_pos_site_id
 _symmetry_equiv_pos_as_xyz
  1  'x, y, z'
loop_
 _atom_site_type_symbol
 _atom_site_label
 _atom_site_symmetry_multiplicity
 _atom_site_fract_x
 _atom_site_fract_y
 _atom_site_fract_z
 _atom_site_occupancy
  Li  Li0  1  0.83333333  0.66666667  0.16666667  1
  Li  Li1  1  0.33333333  0.16666667  0.16666667  1
  Li  Li2  1  0.33333333  0.66666667  0.16666667  1
  Li  Li3  1  0.83333333  0.16666667  0.16666667  1
  Li  Li4  1  0.50000000  0.00000000  0.50000000  1
  Li  Li5  1  0.00000000  0.50000000  0.50000000  1
  Li  Li6  1  1.00000000  1.00000000  0.50000000  1
  Li  Li7  1  0.50000000  0.50000000  0.50000000  1
  Li  Li8  1  0.16666667  0.33333333  0.83333333  1
  Li  Li9  1  0.66666667  0.83333333  0.83333333  1
  Li  Li10  1  0.66666667  0.33333333  0.83333333  1
  Li  Li11  1  0.16666667  0.83333333  0.83333333  1
  Co  Co12  1  0.50000000  0.50000000  0.00000000  1
  Co  Co13  1  0.00000000  0.50000000  0.00000000  1
  Co  Co14  1  0.50000000  0.00000000  0.00000000  1
  Co  Co15  1  0.16666667  0.83333333  0.33333333  1
  Co  Co16  1  0.66666667  0.83333333  0.33333333  1
  Co  Co17  1  0.16666667  0.33333333  0.33333333  1
  Co  Co18  1  0.83333333  0.16666667  0.66666667  1
  Co  Co19  1  0.33333333  0.16666667  0.66666667  1
  Co  Co20  1  0.83333333  0.66666667  0.66666667  1
  Ni  Ni21  1  0.00000000  0.00000000  0.00000000  1
  Ni  Ni22  1  0.66666667  0.33333333  0.33333333  1
  Ni  Ni23  1  0.33333333  0.66666667  0.66666667  1
  O  O24  1  0.17144033  0.34288067  0.07335667  1
  O  O25  1  0.49522633  0.50477367  0.25997667  1
  O  O26  1  0.00000000  0.00000000  0.26087600  1
  O  O27  1  0.00954733  0.50477367  0.25997667  1
  O  O28  1  0.65711933  0.82855967  0.07335667  1
  O  O29  1  0.66666667  0.33333333  0.07245733  1
  O  O30  1  0.17144033  0.82855967  0.07335667  1
  O  O31  1  0.49522633  0.99045267  0.25997667  1
  O  O32  1  0.83810700  0.67621400  0.40669000  1
  O  O33  1  0.16189300  0.83810700  0.59331000  1
  O  O34  1  0.66666667  0.33333333  0.59420933  1
  O  O35  1  0.67621400  0.83810700  0.59331000  1
  O  O36  1  0.32378600  0.16189300  0.40669000  1
  O  O37  1  0.33333333  0.66666667  0.40579067  1
  O  O38  1  0.83810700  0.16189300  0.40669000  1
  O  O39  1  0.16189300  0.32378600  0.59331000  1
  O  O40  1  0.50477367  0.00954733  0.74002333  1
  O  O41  1  0.82855967  0.17144033  0.92664333  1
  O  O42  1  0.33333333  0.66666667  0.92754267  1
  O  O43  1  0.34288067  0.17144033  0.92664333  1
  O  O44  1  0.99045267  0.49522633  0.74002333  1
  O  O45  1  0.00000000  0.00000000  0.73912400  1
  O  O46  1  0.50477367  0.49522633  0.74002333  1
  O  O47  1  0.82855967  0.65711933  0.92664333  1
