# generated using pymatgen
data_LiMn2(BO3)2
_symmetry_space_group_name_H-M   'P 1'
_cell_length_a   5.30960959
_cell_length_b   6.18441930
_cell_length_c   7.67336851
_cell_angle_alpha   81.47720303
_cell_angle_beta   87.88566152
_cell_angle_gamma   87.76594405
_symmetry_Int_Tables_number   1
_chemical_formula_structural   LiMn2(BO3)2
_chemical_formula_sum   'Li2 Mn4 B4 O12'
_cell_volume   248.87389227
_cell_formula_units_Z   2
loop_
 _symmetry_equiv_pos_site_id
 _symmetry_equiv_pos_as_xyz
  1  'x, y, z'
loop_
 _atom_site_type_symbol
 _atom_site_label
 _atom_site_symmetry_multiplicity
 _atom_site_fract_x
 _atom_site_fract_y
 _atom_site_fract_z
 _atom_site_occupancy
  Li  Li0  1  0.90465400  0.63857100  0.69613800  1
  Li  Li1  1  0.09534600  0.36142900  0.30386200  1
  Mn  Mn2  1  0.59466900  0.56508100  0.17738700  1
  Mn  Mn3  1  0.90714800  0.93141800  0.31735300  1
  Mn  Mn4  1  0.40533100  0.43491900  0.82261300  1
  Mn  Mn5  1  0.09285200  0.06858200  0.68264700  1
  B  B6  1  0.41409600  0.73863600  0.49177400  1
  B  B7  1  0.58590400  0.26136400  0.50822600  1
  B  B8  1  0.92698000  0.28162700  0.99501400  1
  B  B9  1  0.07302000  0.71837300  0.00498600  1
  O  O10  1  0.32568600  0.64459300  0.98609000  1
  O  O11  1  0.67431400  0.35540700  0.01391000  1
  O  O12  1  0.94717100  0.83341800  0.87162100  1
  O  O13  1  0.05282900  0.16658200  0.12837900  1
  O  O14  1  0.04257300  0.35058300  0.82861400  1
  O  O15  1  0.95742700  0.64941700  0.17138600  1
  O  O16  1  0.16257900  0.79741500  0.51847300  1
  O  O17  1  0.83742100  0.20258500  0.48152700  1
  O  O18  1  0.56134000  0.64295000  0.62823900  1
  O  O19  1  0.43866000  0.35705000  0.37176100  1
  O  O20  1  0.53273300  0.79319600  0.32300200  1
  O  O21  1  0.46726700  0.20680400  0.67699800  1
