# generated using pymatgen
data_Li2Ni2S3
_symmetry_space_group_name_H-M   'P 1'
_cell_length_a   13.06625000
_cell_length_b   11.90700000
_cell_length_c   6.40988418
_cell_angle_alpha   90.00000000
_cell_angle_beta   117.95424730
_cell_angle_gamma   90.00000000
_symmetry_Int_Tables_number   1
_chemical_formula_structural   Li2Ni2S3
_chemical_formula_sum   'Li16 Ni16 S24'
_cell_volume   880.89195794
_cell_formula_units_Z   8
loop_
 _symmetry_equiv_pos_site_id
 _symmetry_equiv_pos_as_xyz
  1  'x, y, z'
loop_
 _atom_site_type_symbol
 _atom_site_label
 _atom_site_symmetry_multiplicity
 _atom_site_fract_x
 _atom_site_fract_y
 _atom_site_fract_z
 _atom_site_occupancy
  Li  Li0  1  0.37807100  0.58133600  0.92219400  1
  Li  Li1  1  0.37807100  0.41866400  0.42219400  1
  Li  Li2  1  0.00000000  0.72020000  0.75000000  1
  Li  Li3  1  0.00000000  0.43700300  0.75000000  1
  Li  Li4  1  0.00000000  0.56299700  0.25000000  1
  Li  Li5  1  0.00000000  0.27980000  0.25000000  1
  Li  Li6  1  0.62192900  0.58133600  0.57780600  1
  Li  Li7  1  0.62192900  0.41866400  0.07780600  1
  Li  Li8  1  0.87807100  0.08133600  0.92219400  1
  Li  Li9  1  0.87807100  0.91866400  0.42219400  1
  Li  Li10  1  0.50000000  0.22020000  0.75000000  1
  Li  Li11  1  0.50000000  0.93700300  0.75000000  1
  Li  Li12  1  0.50000000  0.06299700  0.25000000  1
  Li  Li13  1  0.50000000  0.77980000  0.25000000  1
  Li  Li14  1  0.12192900  0.08133600  0.57780600  1
  Li  Li15  1  0.12192900  0.91866400  0.07780600  1
  Ni  Ni16  1  0.19900900  0.41614300  0.60805400  1
  Ni  Ni17  1  0.18079800  0.74209700  0.60307400  1
  Ni  Ni18  1  0.19900900  0.58385700  0.10805400  1
  Ni  Ni19  1  0.18079800  0.25790300  0.10307400  1
  Ni  Ni20  1  0.81920200  0.74209700  0.89692600  1
  Ni  Ni21  1  0.80099100  0.41614300  0.89194600  1
  Ni  Ni22  1  0.81920200  0.25790300  0.39692600  1
  Ni  Ni23  1  0.80099100  0.58385700  0.39194600  1
  Ni  Ni24  1  0.69900900  0.91614300  0.60805400  1
  Ni  Ni25  1  0.68079800  0.24209700  0.60307400  1
  Ni  Ni26  1  0.69900900  0.08385700  0.10805400  1
  Ni  Ni27  1  0.68079800  0.75790300  0.10307400  1
  Ni  Ni28  1  0.31920200  0.24209700  0.89692600  1
  Ni  Ni29  1  0.30099100  0.91614300  0.89194600  1
  Ni  Ni30  1  0.31920200  0.75790300  0.39692600  1
  Ni  Ni31  1  0.30099100  0.08385700  0.39194600  1
  S  S32  1  0.15316200  0.57481700  0.72966400  1
  S  S33  1  0.13061000  0.27755400  0.72557000  1
  S  S34  1  0.15316200  0.42518300  0.22966400  1
  S  S35  1  0.13061000  0.72244600  0.22557000  1
  S  S36  1  0.89185650  0.88871950  0.81239200  1
  S  S37  1  0.10814350  0.11128050  0.18760800  1
  S  S38  1  0.86939000  0.27755400  0.77443000  1
  S  S39  1  0.84683800  0.57481700  0.77033600  1
  S  S40  1  0.89185650  0.11128050  0.31239200  1
  S  S41  1  0.86939000  0.72244600  0.27443000  1
  S  S42  1  0.84683800  0.42518300  0.27033600  1
  S  S43  1  0.10814350  0.88871950  0.68760800  1
  S  S44  1  0.65316200  0.07481700  0.72966400  1
  S  S45  1  0.63061000  0.77755400  0.72557000  1
  S  S46  1  0.65316200  0.92518300  0.22966400  1
  S  S47  1  0.63061000  0.22244600  0.22557000  1
  S  S48  1  0.39185650  0.38871950  0.81239200  1
  S  S49  1  0.60814350  0.61128050  0.18760800  1
  S  S50  1  0.36939000  0.77755400  0.77443000  1
  S  S51  1  0.34683800  0.07481700  0.77033600  1
  S  S52  1  0.39185650  0.61128050  0.31239200  1
  S  S53  1  0.36939000  0.22244600  0.27443000  1
  S  S54  1  0.34683800  0.92518300  0.27033600  1
  S  S55  1  0.60814350  0.38871950  0.68760800  1
