# generated using pymatgen
data_Fe9Cu3O16
_symmetry_space_group_name_H-M   'P 1'
_cell_length_a   5.85702378
_cell_length_b   5.87923874
_cell_length_c   8.33928632
_cell_angle_alpha   90.00000000
_cell_angle_beta   90.00000000
_cell_angle_gamma   90.00000000
_symmetry_Int_Tables_number   1
_chemical_formula_structural   Fe9Cu3O16
_chemical_formula_sum   'Fe9 Cu3 O16'
_cell_volume   287.16199947
_cell_formula_units_Z   1
loop_
 _symmetry_equiv_pos_site_id
 _symmetry_equiv_pos_as_xyz
  1  'x, y, z'
loop_
 _atom_site_type_symbol
 _atom_site_label
 _atom_site_symmetry_multiplicity
 _atom_site_fract_x
 _atom_site_fract_y
 _atom_site_fract_z
 _atom_site_occupancy
  Fe  Fe0  1  0.50000000  0.50000000  0.99750640  1
  Fe  Fe1  1  0.75445975  0.00000000  0.12255793  1
  Fe  Fe2  1  0.24554025  0.00000000  0.12255793  1
  Fe  Fe3  1  0.50000000  0.75257082  0.37751326  1
  Fe  Fe4  1  0.50000000  0.24742918  0.37751326  1
  Fe  Fe5  1  0.24977221  0.50000000  0.62592057  1
  Fe  Fe6  1  0.75022779  0.50000000  0.62592057  1
  Fe  Fe7  1  0.00000000  0.75496125  0.87595498  1
  Fe  Fe8  1  0.00000000  0.24503875  0.87595498  1
  Cu  Cu9  1  0.00000000  0.50000000  0.25336498  1
  Cu  Cu10  1  0.00000000  0.00000000  0.50174004  1
  Cu  Cu11  1  0.50000000  0.00000000  0.74705573  1
  O  O12  1  0.00000000  0.22587698  0.10927986  1
  O  O13  1  0.00000000  0.77412302  0.10927986  1
  O  O14  1  0.50000000  0.76960927  0.12806554  1
  O  O15  1  0.50000000  0.23039073  0.12806554  1
  O  O16  1  0.72686970  0.00000000  0.35662756  1
  O  O17  1  0.27313030  0.00000000  0.35662756  1
  O  O18  1  0.27164241  0.50000000  0.39135795  1
  O  O19  1  0.72835759  0.50000000  0.39135795  1
  O  O20  1  0.50000000  0.27816337  0.61124229  1
  O  O21  1  0.50000000  0.72183663  0.61124229  1
  O  O22  1  0.00000000  0.72632735  0.64221561  1
  O  O23  1  0.00000000  0.27367265  0.64221561  1
  O  O24  1  0.22991569  0.50000000  0.86645517  1
  O  O25  1  0.77008431  0.50000000  0.86645517  1
  O  O26  1  0.77850534  0.00000000  0.88761820  1
  O  O27  1  0.22149466  0.00000000  0.88761820  1
