# generated using pymatgen
data_LiV2OF5
_symmetry_space_group_name_H-M   'P 1'
_cell_length_a   6.72402600
_cell_length_b   6.72417000
_cell_length_c   18.61395631
_cell_angle_alpha   90.00000000
_cell_angle_beta   90.31275586
_cell_angle_gamma   90.00000000
_symmetry_Int_Tables_number   1
_chemical_formula_structural   LiV2OF5
_chemical_formula_sum   'Li8 V16 O8 F40'
_cell_volume   841.58946208
_cell_formula_units_Z   8
loop_
 _symmetry_equiv_pos_site_id
 _symmetry_equiv_pos_as_xyz
  1  'x, y, z'
loop_
 _atom_site_type_symbol
 _atom_site_label
 _atom_site_symmetry_multiplicity
 _atom_site_fract_x
 _atom_site_fract_y
 _atom_site_fract_z
 _atom_site_occupancy
  Li  Li0  1  0.49928900  0.50375100  0.00000600  1
  Li  Li1  1  0.49928900  0.49624900  0.50000600  1
  Li  Li2  1  0.49647050  0.00022750  0.74993400  1
  Li  Li3  1  0.49647050  0.99977250  0.24993400  1
  Li  Li4  1  0.99928900  0.00375100  0.00000600  1
  Li  Li5  1  0.99928900  0.99624900  0.50000600  1
  Li  Li6  1  0.99647050  0.50022750  0.74993400  1
  Li  Li7  1  0.99647050  0.49977250  0.24993400  1
  V  V8  1  0.49851700  0.47672700  0.83296400  1
  V  V9  1  0.99170200  0.99982300  0.66030100  1
  V  V10  1  0.49851700  0.52327300  0.33296400  1
  V  V11  1  0.99170200  0.00017700  0.16030100  1
  V  V12  1  0.49914850  0.00828950  0.91024800  1
  V  V13  1  0.52265950  0.99830150  0.58288500  1
  V  V14  1  0.52265950  0.00169850  0.08288500  1
  V  V15  1  0.49914850  0.99171050  0.41024800  1
  V  V16  1  0.99851700  0.97672700  0.83296400  1
  V  V17  1  0.49170200  0.49982300  0.66030100  1
  V  V18  1  0.99851700  0.02327300  0.33296400  1
  V  V19  1  0.49170200  0.50017700  0.16030100  1
  V  V20  1  0.99914850  0.50828950  0.91024800  1
  V  V21  1  0.02265950  0.49830150  0.58288500  1
  V  V22  1  0.02265950  0.50169850  0.08288500  1
  V  V23  1  0.99914850  0.49171050  0.41024800  1
  O  O24  1  0.79103900  0.99926200  0.59397700  1
  O  O25  1  0.79103900  0.00073800  0.09397700  1
  O  O26  1  0.49855900  0.79156500  0.34400400  1
  O  O27  1  0.49855900  0.20843500  0.84400400  1
  O  O28  1  0.29103900  0.49926200  0.59397700  1
  O  O29  1  0.29103900  0.50073800  0.09397700  1
  O  O30  1  0.99855900  0.29156500  0.34400400  1
  O  O31  1  0.99855900  0.70843500  0.84400400  1
  F  F32  1  0.80155550  0.00119850  0.91567800  1
  F  F33  1  0.80155550  0.99880150  0.41567800  1
  F  F34  1  0.80568200  0.99886100  0.74897400  1
  F  F35  1  0.80568200  0.00113900  0.24897400  1
  F  F36  1  0.50097300  0.81299400  0.99752800  1
  F  F37  1  0.50094200  0.80551300  0.49918700  1
  F  F38  1  0.49901800  0.78843900  0.83512600  1
  F  F39  1  0.49886650  0.80233350  0.16528900  1
  F  F40  1  0.49955000  0.80127700  0.66563900  1
  F  F41  1  0.49886650  0.19766650  0.66528900  1
  F  F42  1  0.49955000  0.19872300  0.16563900  1
  F  F43  1  0.49901800  0.21156100  0.33512600  1
  F  F44  1  0.50097300  0.18700600  0.49752800  1
  F  F45  1  0.50094200  0.19448700  0.99918700  1
  F  F46  1  0.18711100  0.00255200  0.24778200  1
  F  F47  1  0.18711100  0.99744800  0.74778200  1
  F  F48  1  0.21100300  0.99877400  0.58515000  1
  F  F49  1  0.21100300  0.00122600  0.08515000  1
  F  F50  1  0.19791550  0.99921450  0.41532800  1
  F  F51  1  0.19791550  0.00078550  0.91532800  1
  F  F52  1  0.30155550  0.50119850  0.91567800  1
  F  F53  1  0.30155550  0.49880150  0.41567800  1
  F  F54  1  0.30568200  0.49886100  0.74897400  1
  F  F55  1  0.30568200  0.50113900  0.24897400  1
  F  F56  1  0.00097300  0.31299400  0.99752800  1
  F  F57  1  0.00094200  0.30551300  0.49918700  1
  F  F58  1  0.99901800  0.28843900  0.83512600  1
  F  F59  1  0.99886650  0.30233350  0.16528900  1
  F  F60  1  0.99955000  0.30127700  0.66563900  1
  F  F61  1  0.99886650  0.69766650  0.66528900  1
  F  F62  1  0.99955000  0.69872300  0.16563900  1
  F  F63  1  0.99901800  0.71156100  0.33512600  1
  F  F64  1  0.00097300  0.68700600  0.49752800  1
  F  F65  1  0.00094200  0.69448700  0.99918700  1
  F  F66  1  0.68711100  0.50255200  0.24778200  1
  F  F67  1  0.68711100  0.49744800  0.74778200  1
  F  F68  1  0.71100300  0.49877400  0.58515000  1
  F  F69  1  0.71100300  0.50122600  0.08515000  1
  F  F70  1  0.69791550  0.49921450  0.41532800  1
  F  F71  1  0.69791550  0.50078550  0.91532800  1
