# generated using pymatgen
data_Li4Ni7(OF7)2
_symmetry_space_group_name_H-M   'P 1'
_cell_length_a   10.24803800
_cell_length_b   6.04923800
_cell_length_c   10.57396850
_cell_angle_alpha   90.00000000
_cell_angle_beta   109.48360549
_cell_angle_gamma   90.00000000
_symmetry_Int_Tables_number   1
_chemical_formula_structural   Li4Ni7(OF7)2
_chemical_formula_sum   'Li8 Ni14 O4 F28'
_cell_volume   617.97363730
_cell_formula_units_Z   2
loop_
 _symmetry_equiv_pos_site_id
 _symmetry_equiv_pos_as_xyz
  1  'x, y, z'
loop_
 _atom_site_type_symbol
 _atom_site_label
 _atom_site_symmetry_multiplicity
 _atom_site_fract_x
 _atom_site_fract_y
 _atom_site_fract_z
 _atom_site_occupancy
  Li  Li0  1  0.42779800  0.00000000  0.29904300  1
  Li  Li1  1  0.57893500  0.50000000  0.20959900  1
  Li  Li2  1  0.07220200  0.50000000  0.70095700  1
  Li  Li3  1  0.92106500  0.00000000  0.79040100  1
  Li  Li4  1  0.92779800  0.50000000  0.29904300  1
  Li  Li5  1  0.07893500  0.00000000  0.20959900  1
  Li  Li6  1  0.57220200  0.00000000  0.70095700  1
  Li  Li7  1  0.42106500  0.50000000  0.79040100  1
  Ni  Ni8  1  0.74067000  0.00000000  0.24222500  1
  Ni  Ni9  1  0.75000000  0.75000000  0.00000000  1
  Ni  Ni10  1  0.75000000  0.75000000  0.50000000  1
  Ni  Ni11  1  0.25000000  0.75000000  0.00000000  1
  Ni  Ni12  1  0.00000000  0.00000000  0.50000000  1
  Ni  Ni13  1  0.75933000  0.50000000  0.75777500  1
  Ni  Ni14  1  0.75000000  0.25000000  0.50000000  1
  Ni  Ni15  1  0.24067000  0.50000000  0.24222500  1
  Ni  Ni16  1  0.25000000  0.25000000  0.00000000  1
  Ni  Ni17  1  0.25000000  0.25000000  0.50000000  1
  Ni  Ni18  1  0.75000000  0.25000000  0.00000000  1
  Ni  Ni19  1  0.50000000  0.50000000  0.50000000  1
  Ni  Ni20  1  0.25933000  0.00000000  0.75777500  1
  Ni  Ni21  1  0.25000000  0.75000000  0.50000000  1
  O  O22  1  0.86368300  0.00000000  0.59381700  1
  O  O23  1  0.63631700  0.50000000  0.40618300  1
  O  O24  1  0.36368300  0.50000000  0.59381700  1
  O  O25  1  0.13631700  0.00000000  0.40618300  1
  F  F26  1  0.85935500  0.74714800  0.87234900  1
  F  F27  1  0.64064500  0.24714800  0.12765100  1
  F  F28  1  0.62582300  0.00000000  0.36622500  1
  F  F29  1  0.86549500  0.00000000  0.12293800  1
  F  F30  1  0.63450500  0.50000000  0.87706200  1
  F  F31  1  0.14228300  0.50000000  0.88928500  1
  F  F32  1  0.35771700  0.00000000  0.11071500  1
  F  F33  1  0.36714250  0.73541650  0.36642500  1
  F  F34  1  0.86714250  0.76458350  0.36642500  1
  F  F35  1  0.85935500  0.25285200  0.87234900  1
  F  F36  1  0.63285750  0.73541650  0.63357500  1
  F  F37  1  0.13285750  0.76458350  0.63357500  1
  F  F38  1  0.64064500  0.75285200  0.12765100  1
  F  F39  1  0.87417700  0.50000000  0.63377500  1
  F  F40  1  0.35935500  0.24714800  0.87234900  1
  F  F41  1  0.14064500  0.74714800  0.12765100  1
  F  F42  1  0.12582300  0.50000000  0.36622500  1
  F  F43  1  0.36549500  0.50000000  0.12293800  1
  F  F44  1  0.13450500  0.00000000  0.87706200  1
  F  F45  1  0.64228300  0.00000000  0.88928500  1
  F  F46  1  0.85771700  0.50000000  0.11071500  1
  F  F47  1  0.86714250  0.23541650  0.36642500  1
  F  F48  1  0.36714250  0.26458350  0.36642500  1
  F  F49  1  0.35935500  0.75285200  0.87234900  1
  F  F50  1  0.13285750  0.23541650  0.63357500  1
  F  F51  1  0.63285750  0.26458350  0.63357500  1
  F  F52  1  0.14064500  0.25285200  0.12765100  1
  F  F53  1  0.37417700  0.00000000  0.63377500  1
