# generated using pymatgen
data_Li2MnSi4O11
_symmetry_space_group_name_H-M   'P 1'
_cell_length_a   10.67218600
_cell_length_b   9.56153200
_cell_length_c   8.27566876
_cell_angle_alpha   90.00000000
_cell_angle_beta   101.65863838
_cell_angle_gamma   90.00000000
_symmetry_Int_Tables_number   1
_chemical_formula_structural   Li2MnSi4O11
_chemical_formula_sum   'Li8 Mn4 Si16 O44'
_cell_volume   827.04720378
_cell_formula_units_Z   4
loop_
 _symmetry_equiv_pos_site_id
 _symmetry_equiv_pos_as_xyz
  1  'x, y, z'
loop_
 _atom_site_type_symbol
 _atom_site_label
 _atom_site_symmetry_multiplicity
 _atom_site_fract_x
 _atom_site_fract_y
 _atom_site_fract_z
 _atom_site_occupancy
  Li  Li0  1  0.00000000  0.08021800  0.75000000  1
  Li  Li1  1  0.00000000  0.35664900  0.75000000  1
  Li  Li2  1  0.00000000  0.64335100  0.25000000  1
  Li  Li3  1  0.00000000  0.91978200  0.25000000  1
  Li  Li4  1  0.50000000  0.58021800  0.75000000  1
  Li  Li5  1  0.50000000  0.85664900  0.75000000  1
  Li  Li6  1  0.50000000  0.14335100  0.25000000  1
  Li  Li7  1  0.50000000  0.41978200  0.25000000  1
  Mn  Mn8  1  0.25000000  0.75000000  0.50000000  1
  Mn  Mn9  1  0.75000000  0.75000000  0.00000000  1
  Mn  Mn10  1  0.75000000  0.25000000  0.50000000  1
  Mn  Mn11  1  0.25000000  0.25000000  0.00000000  1
  Si  Si12  1  0.77741800  0.55995200  0.66196800  1
  Si  Si13  1  0.77741800  0.44004800  0.16196800  1
  Si  Si14  1  0.95502950  0.79162650  0.56625000  1
  Si  Si15  1  0.04497050  0.79162650  0.93375000  1
  Si  Si16  1  0.95502950  0.20837350  0.06625000  1
  Si  Si17  1  0.04497050  0.20837350  0.43375000  1
  Si  Si18  1  0.22258200  0.55995200  0.83803200  1
  Si  Si19  1  0.22258200  0.44004800  0.33803200  1
  Si  Si20  1  0.27741800  0.05995200  0.66196800  1
  Si  Si21  1  0.27741800  0.94004800  0.16196800  1
  Si  Si22  1  0.45502950  0.29162650  0.56625000  1
  Si  Si23  1  0.54497050  0.29162650  0.93375000  1
  Si  Si24  1  0.45502950  0.70837350  0.06625000  1
  Si  Si25  1  0.54497050  0.70837350  0.43375000  1
  Si  Si26  1  0.72258200  0.05995200  0.83803200  1
  Si  Si27  1  0.72258200  0.94004800  0.33803200  1
  O  O28  1  0.64289750  0.59380050  0.53289900  1
  O  O29  1  0.76391650  0.61515550  0.84104200  1
  O  O30  1  0.64289750  0.40619950  0.03289900  1
  O  O31  1  0.76391650  0.38484450  0.34104200  1
  O  O32  1  0.80241650  0.39190750  0.67352500  1
  O  O33  1  0.80241650  0.60809250  0.17352500  1
  O  O34  1  0.89426350  0.63915750  0.59212100  1
  O  O35  1  0.93714900  0.21696900  0.54737500  1
  O  O36  1  0.89426350  0.36084250  0.09212100  1
  O  O37  1  0.00000000  0.86596100  0.75000000  1
  O  O38  1  0.06285100  0.21696900  0.95262500  1
  O  O39  1  0.93714900  0.78303100  0.04737500  1
  O  O40  1  0.00000000  0.13403900  0.25000000  1
  O  O41  1  0.10573650  0.63915750  0.90787900  1
  O  O42  1  0.06285100  0.78303100  0.45262500  1
  O  O43  1  0.10573650  0.36084250  0.40787900  1
  O  O44  1  0.19758350  0.39190750  0.82647500  1
  O  O45  1  0.19758350  0.60809250  0.32647500  1
  O  O46  1  0.23608350  0.61515550  0.65895800  1
  O  O47  1  0.35710250  0.59380050  0.96710100  1
  O  O48  1  0.23608350  0.38484450  0.15895800  1
  O  O49  1  0.35710250  0.40619950  0.46710100  1
  O  O50  1  0.14289750  0.09380050  0.53289900  1
  O  O51  1  0.26391650  0.11515550  0.84104200  1
  O  O52  1  0.14289750  0.90619950  0.03289900  1
  O  O53  1  0.26391650  0.88484450  0.34104200  1
  O  O54  1  0.30241650  0.89190750  0.67352500  1
  O  O55  1  0.30241650  0.10809250  0.17352500  1
  O  O56  1  0.39426350  0.13915750  0.59212100  1
  O  O57  1  0.43714900  0.71696900  0.54737500  1
  O  O58  1  0.39426350  0.86084250  0.09212100  1
  O  O59  1  0.50000000  0.36596100  0.75000000  1
  O  O60  1  0.56285100  0.71696900  0.95262500  1
  O  O61  1  0.43714900  0.28303100  0.04737500  1
  O  O62  1  0.50000000  0.63403900  0.25000000  1
  O  O63  1  0.60573650  0.13915750  0.90787900  1
  O  O64  1  0.56285100  0.28303100  0.45262500  1
  O  O65  1  0.60573650  0.86084250  0.40787900  1
  O  O66  1  0.69758350  0.89190750  0.82647500  1
  O  O67  1  0.69758350  0.10809250  0.32647500  1
  O  O68  1  0.73608350  0.11515550  0.65895800  1
  O  O69  1  0.85710250  0.09380050  0.96710100  1
  O  O70  1  0.73608350  0.88484450  0.15895800  1
  O  O71  1  0.85710250  0.90619950  0.46710100  1
