# generated using pymatgen
data_Li2MnV4NiO12
_symmetry_space_group_name_H-M   'P 1'
_cell_length_a   10.40382200
_cell_length_b   9.26058800
_cell_length_c   5.74124890
_cell_angle_alpha   90.00000000
_cell_angle_beta   111.12672016
_cell_angle_gamma   90.00000000
_symmetry_Int_Tables_number   1
_chemical_formula_structural   Li2MnV4NiO12
_chemical_formula_sum   'Li4 Mn2 V8 Ni2 O24'
_cell_volume   515.96430790
_cell_formula_units_Z   2
loop_
 _symmetry_equiv_pos_site_id
 _symmetry_equiv_pos_as_xyz
  1  'x, y, z'
loop_
 _atom_site_type_symbol
 _atom_site_label
 _atom_site_symmetry_multiplicity
 _atom_site_fract_x
 _atom_site_fract_y
 _atom_site_fract_z
 _atom_site_occupancy
  Li  Li0  1  0.00000000  0.24268800  0.50000000  1
  Li  Li1  1  0.00000000  0.75927200  0.00000000  1
  Li  Li2  1  0.50000000  0.74268800  0.50000000  1
  Li  Li3  1  0.50000000  0.25927200  0.00000000  1
  Mn  Mn4  1  0.00000000  0.08737400  0.00000000  1
  Mn  Mn5  1  0.50000000  0.58737400  0.00000000  1
  V  V6  1  0.20336850  0.40702650  0.98160200  1
  V  V7  1  0.20759100  0.60491600  0.48217800  1
  V  V8  1  0.79663150  0.40702650  0.01839800  1
  V  V9  1  0.79240900  0.60491600  0.51782200  1
  V  V10  1  0.70336850  0.90702650  0.98160200  1
  V  V11  1  0.70759100  0.10491600  0.48217800  1
  V  V12  1  0.29663150  0.90702650  0.01839800  1
  V  V13  1  0.29240900  0.10491600  0.51782200  1
  Ni  Ni14  1  0.00000000  0.91397700  0.50000000  1
  Ni  Ni15  1  0.50000000  0.41397700  0.50000000  1
  O  O16  1  0.38449000  0.40696300  0.10498500  1
  O  O17  1  0.13998700  0.23411800  0.92893800  1
  O  O18  1  0.39198550  0.58846150  0.59768000  1
  O  O19  1  0.13875800  0.49652800  0.18540000  1
  O  O20  1  0.86001300  0.23411800  0.07106200  1
  O  O21  1  0.14246250  0.49209050  0.68943500  1
  O  O22  1  0.86124200  0.49652800  0.81460000  1
  O  O23  1  0.12303750  0.76824150  0.40715400  1
  O  O24  1  0.85753750  0.49209050  0.31056500  1
  O  O25  1  0.61551000  0.40696300  0.89501500  1
  O  O26  1  0.87696250  0.76824150  0.59284600  1
  O  O27  1  0.60801450  0.58846150  0.40232000  1
  O  O28  1  0.88449000  0.90696300  0.10498500  1
  O  O29  1  0.63998700  0.73411800  0.92893800  1
  O  O30  1  0.89198550  0.08846150  0.59768000  1
  O  O31  1  0.63875800  0.99652800  0.18540000  1
  O  O32  1  0.36001300  0.73411800  0.07106200  1
  O  O33  1  0.64246250  0.99209050  0.68943500  1
  O  O34  1  0.36124200  0.99652800  0.81460000  1
  O  O35  1  0.62303750  0.26824150  0.40715400  1
  O  O36  1  0.35753750  0.99209050  0.31056500  1
  O  O37  1  0.11551000  0.90696300  0.89501500  1
  O  O38  1  0.37696250  0.26824150  0.59284600  1
  O  O39  1  0.10801450  0.08846150  0.40232000  1
