# generated using pymatgen
data_La3Nb8O24
_symmetry_space_group_name_H-M   'P 1'
_cell_length_a   15.94247600
_cell_length_b   7.96664800
_cell_length_c   8.98714232
_cell_angle_alpha   90.00000000
_cell_angle_beta   116.32177834
_cell_angle_gamma   90.00000000
_symmetry_Int_Tables_number   1
_chemical_formula_structural   La3Nb8O24
_chemical_formula_sum   'La6 Nb16 O48'
_cell_volume   1023.09300325
_cell_formula_units_Z   2
loop_
 _symmetry_equiv_pos_site_id
 _symmetry_equiv_pos_as_xyz
  1  'x, y, z'
loop_
 _atom_site_type_symbol
 _atom_site_label
 _atom_site_symmetry_multiplicity
 _atom_site_fract_x
 _atom_site_fract_y
 _atom_site_fract_z
 _atom_site_occupancy
  La  La0  1  0.00000000  0.50000000  0.00000000  1
  La  La1  1  0.24932100  0.50000000  0.00007000  1
  La  La2  1  0.25067900  0.00000000  0.99993000  1
  La  La3  1  0.50000000  0.00000000  0.00000000  1
  La  La4  1  0.74932100  0.00000000  0.00007000  1
  La  La5  1  0.75067900  0.50000000  0.99993000  1
  Nb  Nb6  1  0.44144650  0.25362650  0.25905800  1
  Nb  Nb7  1  0.44144650  0.74637350  0.25905800  1
  Nb  Nb8  1  0.31193950  0.25373450  0.74095900  1
  Nb  Nb9  1  0.31193950  0.74626550  0.74095900  1
  Nb  Nb10  1  0.18806050  0.24626550  0.25904100  1
  Nb  Nb11  1  0.18806050  0.75373450  0.25904100  1
  Nb  Nb12  1  0.05855350  0.24637350  0.74094200  1
  Nb  Nb13  1  0.05855350  0.75362650  0.74094200  1
  Nb  Nb14  1  0.94144650  0.75362650  0.25905800  1
  Nb  Nb15  1  0.94144650  0.24637350  0.25905800  1
  Nb  Nb16  1  0.81193950  0.75373450  0.74095900  1
  Nb  Nb17  1  0.81193950  0.24626550  0.74095900  1
  Nb  Nb18  1  0.68806050  0.74626550  0.25904100  1
  Nb  Nb19  1  0.68806050  0.25373450  0.25904100  1
  Nb  Nb20  1  0.55855350  0.74637350  0.74094200  1
  Nb  Nb21  1  0.55855350  0.25362650  0.74094200  1
  O  O22  1  0.42734200  0.50000000  0.22936300  1
  O  O23  1  0.42955800  0.00000000  0.22223000  1
  O  O24  1  0.36985600  0.24017100  0.00001400  1
  O  O25  1  0.00000000  0.25093700  0.50000000  1
  O  O26  1  0.36985600  0.75982900  0.00001400  1
  O  O27  1  0.00000000  0.74906300  0.50000000  1
  O  O28  1  0.44216350  0.23824950  0.76860000  1
  O  O29  1  0.44216350  0.76175050  0.76860000  1
  O  O30  1  0.30632400  0.74988900  0.22538000  1
  O  O31  1  0.30632400  0.25011100  0.22538000  1
  O  O32  1  0.18730900  0.00000000  0.22937100  1
  O  O33  1  0.31269100  0.50000000  0.77062900  1
  O  O34  1  0.31854500  0.00000000  0.77782100  1
  O  O35  1  0.25000000  0.25000000  0.50000000  1
  O  O36  1  0.18145500  0.50000000  0.22217900  1
  O  O37  1  0.13014400  0.25982900  0.99998600  1
  O  O38  1  0.25000000  0.75000000  0.50000000  1
  O  O39  1  0.13014400  0.74017100  0.99998600  1
  O  O40  1  0.19367600  0.75011100  0.77462000  1
  O  O41  1  0.19367600  0.24988900  0.77462000  1
  O  O42  1  0.05783650  0.26175050  0.23140000  1
  O  O43  1  0.05783650  0.73824950  0.23140000  1
  O  O44  1  0.07044200  0.50000000  0.77777000  1
  O  O45  1  0.07265800  0.00000000  0.77063700  1
  O  O46  1  0.92734200  0.00000000  0.22936300  1
  O  O47  1  0.92955800  0.50000000  0.22223000  1
  O  O48  1  0.86985600  0.74017100  0.00001400  1
  O  O49  1  0.50000000  0.75093700  0.50000000  1
  O  O50  1  0.86985600  0.25982900  0.00001400  1
  O  O51  1  0.50000000  0.24906300  0.50000000  1
  O  O52  1  0.94216350  0.73824950  0.76860000  1
  O  O53  1  0.94216350  0.26175050  0.76860000  1
  O  O54  1  0.80632400  0.24988900  0.22538000  1
  O  O55  1  0.80632400  0.75011100  0.22538000  1
  O  O56  1  0.68730900  0.50000000  0.22937100  1
  O  O57  1  0.81269100  0.00000000  0.77062900  1
  O  O58  1  0.81854500  0.50000000  0.77782100  1
  O  O59  1  0.75000000  0.75000000  0.50000000  1
  O  O60  1  0.68145500  0.00000000  0.22217900  1
  O  O61  1  0.63014400  0.75982900  0.99998600  1
  O  O62  1  0.75000000  0.25000000  0.50000000  1
  O  O63  1  0.63014400  0.24017100  0.99998600  1
  O  O64  1  0.69367600  0.25011100  0.77462000  1
  O  O65  1  0.69367600  0.74988900  0.77462000  1
  O  O66  1  0.55783650  0.76175050  0.23140000  1
  O  O67  1  0.55783650  0.23824950  0.23140000  1
  O  O68  1  0.57044200  0.00000000  0.77777000  1
  O  O69  1  0.57265800  0.50000000  0.77063700  1
