# generated using pymatgen
data_LiMn(PO3)4
_symmetry_space_group_name_H-M   'P 1'
_cell_length_a   16.26045400
_cell_length_b   7.60156000
_cell_length_c   10.02987302
_cell_angle_alpha   90.00000000
_cell_angle_beta   127.83682292
_cell_angle_gamma   90.00000000
_symmetry_Int_Tables_number   1
_chemical_formula_structural   LiMn(PO3)4
_chemical_formula_sum   'Li4 Mn4 P16 O48'
_cell_volume   979.09872132
_cell_formula_units_Z   4
loop_
 _symmetry_equiv_pos_site_id
 _symmetry_equiv_pos_as_xyz
  1  'x, y, z'
loop_
 _atom_site_type_symbol
 _atom_site_label
 _atom_site_symmetry_multiplicity
 _atom_site_fract_x
 _atom_site_fract_y
 _atom_site_fract_z
 _atom_site_occupancy
  Li  Li0  1  0.00000000  0.16997700  0.25000000  1
  Li  Li1  1  0.00000000  0.83002300  0.75000000  1
  Li  Li2  1  0.50000000  0.66997700  0.25000000  1
  Li  Li3  1  0.50000000  0.33002300  0.75000000  1
  Mn  Mn4  1  0.00000000  0.71124600  0.25000000  1
  Mn  Mn5  1  0.00000000  0.28875400  0.75000000  1
  Mn  Mn6  1  0.50000000  0.21124600  0.25000000  1
  Mn  Mn7  1  0.50000000  0.78875400  0.75000000  1
  P  P8  1  0.63640300  0.67559000  0.11196500  1
  P  P9  1  0.64240850  0.07451950  0.15230100  1
  P  P10  1  0.85759150  0.57451950  0.34769900  1
  P  P11  1  0.86359700  0.17559000  0.38803500  1
  P  P12  1  0.13640300  0.82441000  0.61196500  1
  P  P13  1  0.14240850  0.42548050  0.65230100  1
  P  P14  1  0.35759150  0.92548050  0.84769900  1
  P  P15  1  0.36359700  0.32441000  0.88803500  1
  P  P16  1  0.13640300  0.17559000  0.11196500  1
  P  P17  1  0.14240850  0.57451950  0.15230100  1
  P  P18  1  0.35759150  0.07451950  0.34769900  1
  P  P19  1  0.36359700  0.67559000  0.38803500  1
  P  P20  1  0.63640300  0.32441000  0.61196500  1
  P  P21  1  0.64240850  0.92548050  0.65230100  1
  P  P22  1  0.85759150  0.42548050  0.84769900  1
  P  P23  1  0.86359700  0.82441000  0.88803500  1
  O  O24  1  0.61932300  0.21044500  0.02857000  1
  O  O25  1  0.65204850  0.88277150  0.09223700  1
  O  O26  1  0.11364200  0.13557400  0.22980300  1
  O  O27  1  0.74413300  0.59508900  0.16578100  1
  O  O28  1  0.94256400  0.88305800  0.07482000  1
  O  O29  1  0.75586700  0.09508900  0.33421900  1
  O  O30  1  0.88635800  0.13557400  0.27019700  1
  O  O31  1  0.92991450  0.54977450  0.29925400  1
  O  O32  1  0.07008550  0.54977450  0.20074600  1
  O  O33  1  0.84795150  0.38277150  0.40776300  1
  O  O34  1  0.88067700  0.71044500  0.47143000  1
  O  O35  1  0.05743600  0.88305800  0.42518000  1
  O  O36  1  0.94256400  0.11694200  0.57482000  1
  O  O37  1  0.11932300  0.28955500  0.52857000  1
  O  O38  1  0.15204850  0.61722850  0.59223700  1
  O  O39  1  0.92991450  0.45022550  0.79925400  1
  O  O40  1  0.07008550  0.45022550  0.70074600  1
  O  O41  1  0.11364200  0.86442600  0.72980300  1
  O  O42  1  0.24413300  0.90491100  0.66578100  1
  O  O43  1  0.05743600  0.11694200  0.92518000  1
  O  O44  1  0.25586700  0.40491100  0.83421900  1
  O  O45  1  0.88635800  0.86442600  0.77019700  1
  O  O46  1  0.34795150  0.11722850  0.90776300  1
  O  O47  1  0.38067700  0.78955500  0.97143000  1
  O  O48  1  0.11932300  0.71044500  0.02857000  1
  O  O49  1  0.15204850  0.38277150  0.09223700  1
  O  O50  1  0.61364200  0.63557400  0.22980300  1
  O  O51  1  0.24413300  0.09508900  0.16578100  1
  O  O52  1  0.44256400  0.38305800  0.07482000  1
  O  O53  1  0.25586700  0.59508900  0.33421900  1
  O  O54  1  0.38635800  0.63557400  0.27019700  1
  O  O55  1  0.42991450  0.04977450  0.29925400  1
  O  O56  1  0.57008550  0.04977450  0.20074600  1
  O  O57  1  0.34795150  0.88277150  0.40776300  1
  O  O58  1  0.38067700  0.21044500  0.47143000  1
  O  O59  1  0.55743600  0.38305800  0.42518000  1
  O  O60  1  0.44256400  0.61694200  0.57482000  1
  O  O61  1  0.61932300  0.78955500  0.52857000  1
  O  O62  1  0.65204850  0.11722850  0.59223700  1
  O  O63  1  0.42991450  0.95022550  0.79925400  1
  O  O64  1  0.57008550  0.95022550  0.70074600  1
  O  O65  1  0.61364200  0.36442600  0.72980300  1
  O  O66  1  0.74413300  0.40491100  0.66578100  1
  O  O67  1  0.55743600  0.61694200  0.92518000  1
  O  O68  1  0.75586700  0.90491100  0.83421900  1
  O  O69  1  0.38635800  0.36442600  0.77019700  1
  O  O70  1  0.84795150  0.61722850  0.90776300  1
  O  O71  1  0.88067700  0.28955500  0.97143000  1
