# generated using pymatgen
data_RePO5
_symmetry_space_group_name_H-M   'P 1'
_cell_length_a   12.50100400
_cell_length_b   12.43145800
_cell_length_c   5.25805198
_cell_angle_alpha   90.00000000
_cell_angle_beta   90.61406650
_cell_angle_gamma   90.00000000
_symmetry_Int_Tables_number   1
_chemical_formula_structural   RePO5
_chemical_formula_sum   'Re8 P8 O40'
_cell_volume   817.08435169
_cell_formula_units_Z   8
loop_
 _symmetry_equiv_pos_site_id
 _symmetry_equiv_pos_as_xyz
  1  'x, y, z'
loop_
 _atom_site_type_symbol
 _atom_site_label
 _atom_site_symmetry_multiplicity
 _atom_site_fract_x
 _atom_site_fract_y
 _atom_site_fract_z
 _atom_site_occupancy
  Re  Re0  1  0.85310100  0.10083100  0.73815900  1
  Re  Re1  1  0.14689900  0.10083100  0.76184100  1
  Re  Re2  1  0.14689900  0.89916900  0.26184100  1
  Re  Re3  1  0.85310100  0.89916900  0.23815900  1
  Re  Re4  1  0.35310100  0.60083100  0.73815900  1
  Re  Re5  1  0.64689900  0.60083100  0.76184100  1
  Re  Re6  1  0.64689900  0.39916900  0.26184100  1
  Re  Re7  1  0.35310100  0.39916900  0.23815900  1
  P  P8  1  0.61619300  0.21986700  0.78000200  1
  P  P9  1  0.38380700  0.21986700  0.71999800  1
  P  P10  1  0.38380700  0.78013300  0.21999800  1
  P  P11  1  0.61619300  0.78013300  0.28000200  1
  P  P12  1  0.11619300  0.71986700  0.78000200  1
  P  P13  1  0.88380700  0.71986700  0.71999800  1
  P  P14  1  0.88380700  0.28013300  0.21999800  1
  P  P15  1  0.11619300  0.28013300  0.28000200  1
  O  O16  1  0.37964800  0.31282700  0.90754500  1
  O  O17  1  0.62035200  0.31282700  0.59245500  1
  O  O18  1  0.62035200  0.68717300  0.09245500  1
  O  O19  1  0.37964800  0.68717300  0.40754500  1
  O  O20  1  0.50000000  0.83715300  0.25000000  1
  O  O21  1  0.50000000  0.16284700  0.75000000  1
  O  O22  1  0.30630950  0.12870950  0.78795200  1
  O  O23  1  0.69369050  0.12870950  0.71204800  1
  O  O24  1  0.69369050  0.87129050  0.21204800  1
  O  O25  1  0.30630950  0.87129050  0.28795200  1
  O  O26  1  0.36992600  0.74371600  0.94139900  1
  O  O27  1  0.63007400  0.74371600  0.55860100  1
  O  O28  1  0.63007400  0.25628400  0.05860100  1
  O  O29  1  0.36992600  0.25628400  0.44139900  1
  O  O30  1  0.50000000  0.58453400  0.75000000  1
  O  O31  1  0.50000000  0.41546600  0.25000000  1
  O  O32  1  0.83537050  0.98211550  0.52439600  1
  O  O33  1  0.16462950  0.98211550  0.97560400  1
  O  O34  1  0.16462950  0.01788450  0.47560400  1
  O  O35  1  0.83537050  0.01788450  0.02439600  1
  O  O36  1  0.87964800  0.81282700  0.90754500  1
  O  O37  1  0.12035200  0.81282700  0.59245500  1
  O  O38  1  0.12035200  0.18717300  0.09245500  1
  O  O39  1  0.87964800  0.18717300  0.40754500  1
  O  O40  1  0.00000000  0.33715300  0.25000000  1
  O  O41  1  0.00000000  0.66284700  0.75000000  1
  O  O42  1  0.80630950  0.62870950  0.78795200  1
  O  O43  1  0.19369050  0.62870950  0.71204800  1
  O  O44  1  0.19369050  0.37129050  0.21204800  1
  O  O45  1  0.80630950  0.37129050  0.28795200  1
  O  O46  1  0.86992600  0.24371600  0.94139900  1
  O  O47  1  0.13007400  0.24371600  0.55860100  1
  O  O48  1  0.13007400  0.75628400  0.05860100  1
  O  O49  1  0.86992600  0.75628400  0.44139900  1
  O  O50  1  0.00000000  0.08453400  0.75000000  1
  O  O51  1  0.00000000  0.91546600  0.25000000  1
  O  O52  1  0.33537050  0.48211550  0.52439600  1
  O  O53  1  0.66462950  0.48211550  0.97560400  1
  O  O54  1  0.66462950  0.51788450  0.47560400  1
  O  O55  1  0.33537050  0.51788450  0.02439600  1
