# generated using pymatgen
data_CoPO4
_symmetry_space_group_name_H-M   'P 1'
_cell_length_a   8.64870000
_cell_length_b   5.33721000
_cell_length_c   8.76899806
_cell_angle_alpha   90.00000000
_cell_angle_beta   106.35136393
_cell_angle_gamma   90.00000000
_symmetry_Int_Tables_number   1
_chemical_formula_structural   CoPO4
_chemical_formula_sum   'Co4 P4 O16'
_cell_volume   388.40445260
_cell_formula_units_Z   4
loop_
 _symmetry_equiv_pos_site_id
 _symmetry_equiv_pos_as_xyz
  1  'x, y, z'
loop_
 _atom_site_type_symbol
 _atom_site_label
 _atom_site_symmetry_multiplicity
 _atom_site_fract_x
 _atom_site_fract_y
 _atom_site_fract_z
 _atom_site_occupancy
  Co  Co0  1  0.49841650  0.80263750  0.74746700  1
  Co  Co1  1  0.49841650  0.19736250  0.24746700  1
  Co  Co2  1  0.99841650  0.30263750  0.74746700  1
  Co  Co3  1  0.99841650  0.69736250  0.24746700  1
  P  P4  1  0.37535450  0.69781550  0.37422000  1
  P  P5  1  0.37535450  0.30218450  0.87422000  1
  P  P6  1  0.87535450  0.19781550  0.37422000  1
  P  P7  1  0.87535450  0.80218450  0.87422000  1
  O  O8  1  0.43190500  0.86923400  0.25749600  1
  O  O9  1  0.49602900  0.72686200  0.54074300  1
  O  O10  1  0.86899200  0.07589800  0.81475600  1
  O  O11  1  0.70354300  0.73588200  0.88335400  1
  O  O12  1  0.86899200  0.92410200  0.31475600  1
  O  O13  1  0.43190500  0.13076600  0.75749600  1
  O  O14  1  0.70354300  0.26411800  0.38335400  1
  O  O15  1  0.49602900  0.27313800  0.04074300  1
  O  O16  1  0.93190500  0.36923400  0.25749600  1
  O  O17  1  0.99602900  0.22686200  0.54074300  1
  O  O18  1  0.36899200  0.57589800  0.81475600  1
  O  O19  1  0.20354300  0.23588200  0.88335400  1
  O  O20  1  0.36899200  0.42410200  0.31475600  1
  O  O21  1  0.93190500  0.63076600  0.75749600  1
  O  O22  1  0.20354300  0.76411800  0.38335400  1
  O  O23  1  0.99602900  0.77313800  0.04074300  1
