# generated using pymatgen
data_LiFe2OF3
_symmetry_space_group_name_H-M   'P 1'
_cell_length_a   6.12625000
_cell_length_b   8.84029800
_cell_length_c   12.53651800
_cell_angle_alpha   90.00000000
_cell_angle_beta   90.00000000
_cell_angle_gamma   90.00000000
_symmetry_Int_Tables_number   1
_chemical_formula_structural   LiFe2OF3
_chemical_formula_sum   'Li8 Fe16 O8 F24'
_cell_volume   678.95118258
_cell_formula_units_Z   8
loop_
 _symmetry_equiv_pos_site_id
 _symmetry_equiv_pos_as_xyz
  1  'x, y, z'
loop_
 _atom_site_type_symbol
 _atom_site_label
 _atom_site_symmetry_multiplicity
 _atom_site_fract_x
 _atom_site_fract_y
 _atom_site_fract_z
 _atom_site_occupancy
  Li  Li0  1  0.00000000  0.85442200  0.86521400  1
  Li  Li1  1  0.00000000  0.85442200  0.13478600  1
  Li  Li2  1  0.50000000  0.63537100  0.87116100  1
  Li  Li3  1  0.50000000  0.63537100  0.12883900  1
  Li  Li4  1  0.50000000  0.35442200  0.36521400  1
  Li  Li5  1  0.50000000  0.35442200  0.63478600  1
  Li  Li6  1  0.00000000  0.13537100  0.37116100  1
  Li  Li7  1  0.00000000  0.13537100  0.62883900  1
  Fe  Fe8  1  0.50000000  0.97669500  0.00000000  1
  Fe  Fe9  1  0.00000000  0.51591500  0.25198800  1
  Fe  Fe10  1  0.00000000  0.51591500  0.74801200  1
  Fe  Fe11  1  0.25855900  0.25084200  0.11893700  1
  Fe  Fe12  1  0.74144100  0.25084200  0.88106300  1
  Fe  Fe13  1  0.74144100  0.25084200  0.11893700  1
  Fe  Fe14  1  0.25855900  0.25084200  0.88106300  1
  Fe  Fe15  1  0.00000000  0.51725100  0.00000000  1
  Fe  Fe16  1  0.00000000  0.47669500  0.50000000  1
  Fe  Fe17  1  0.50000000  0.01591500  0.75198800  1
  Fe  Fe18  1  0.50000000  0.01591500  0.24801200  1
  Fe  Fe19  1  0.75855900  0.75084200  0.61893700  1
  Fe  Fe20  1  0.24144100  0.75084200  0.38106300  1
  Fe  Fe21  1  0.24144100  0.75084200  0.61893700  1
  Fe  Fe22  1  0.75855900  0.75084200  0.38106300  1
  Fe  Fe23  1  0.50000000  0.01725100  0.50000000  1
  O  O24  1  0.50000000  0.20969900  0.00000000  1
  O  O25  1  0.50000000  0.23552450  0.76824750  1
  O  O26  1  0.50000000  0.23552450  0.23175250  1
  O  O27  1  0.00000000  0.28236300  0.00000000  1
  O  O28  1  0.00000000  0.70969900  0.50000000  1
  O  O29  1  0.00000000  0.73552450  0.26824750  1
  O  O30  1  0.00000000  0.73552450  0.73175250  1
  O  O31  1  0.50000000  0.78236300  0.50000000  1
  F  F32  1  0.00000000  0.74182000  0.00000000  1
  F  F33  1  0.74931150  0.49445350  0.37534850  1
  F  F34  1  0.25068850  0.49445350  0.62465150  1
  F  F35  1  0.74931150  0.49445350  0.62465150  1
  F  F36  1  0.25068850  0.49445350  0.37534850  1
  F  F37  1  0.00000000  0.27557800  0.75783200  1
  F  F38  1  0.00000000  0.27557800  0.24216800  1
  F  F39  1  0.24500650  0.50201850  0.87315650  1
  F  F40  1  0.24500650  0.50201850  0.12684350  1
  F  F41  1  0.75499350  0.50201850  0.87315650  1
  F  F42  1  0.75499350  0.50201850  0.12684350  1
  F  F43  1  0.50000000  0.74930400  0.00000000  1
  F  F44  1  0.50000000  0.24182000  0.50000000  1
  F  F45  1  0.24931150  0.99445350  0.87534850  1
  F  F46  1  0.75068850  0.99445350  0.12465150  1
  F  F47  1  0.24931150  0.99445350  0.12465150  1
  F  F48  1  0.75068850  0.99445350  0.87534850  1
  F  F49  1  0.50000000  0.77557800  0.25783200  1
  F  F50  1  0.50000000  0.77557800  0.74216800  1
  F  F51  1  0.74500650  0.00201850  0.37315650  1
  F  F52  1  0.74500650  0.00201850  0.62684350  1
  F  F53  1  0.25499350  0.00201850  0.37315650  1
  F  F54  1  0.25499350  0.00201850  0.62684350  1
  F  F55  1  0.00000000  0.24930400  0.50000000  1
