# generated using pymatgen
data_Li2Fe(CuO3)2
_symmetry_space_group_name_H-M   'P 1'
_cell_length_a   12.88496200
_cell_length_b   2.96541400
_cell_length_c   5.96854575
_cell_angle_alpha   90.00000000
_cell_angle_beta   104.71632734
_cell_angle_gamma   90.00000000
_symmetry_Int_Tables_number   1
_chemical_formula_structural   Li2Fe(CuO3)2
_chemical_formula_sum   'Li4 Fe2 Cu4 O12'
_cell_volume   220.57242891
_cell_formula_units_Z   2
loop_
 _symmetry_equiv_pos_site_id
 _symmetry_equiv_pos_as_xyz
  1  'x, y, z'
loop_
 _atom_site_type_symbol
 _atom_site_label
 _atom_site_symmetry_multiplicity
 _atom_site_fract_x
 _atom_site_fract_y
 _atom_site_fract_z
 _atom_site_occupancy
  Li  Li0  1  0.33573600  0.50000000  0.18063400  1
  Li  Li1  1  0.16426400  0.00000000  0.81936600  1
  Li  Li2  1  0.83573600  0.00000000  0.18063400  1
  Li  Li3  1  0.66426400  0.50000000  0.81936600  1
  Fe  Fe4  1  0.00000000  0.50000000  0.00000000  1
  Fe  Fe5  1  0.50000000  0.00000000  0.00000000  1
  Cu  Cu6  1  0.33598800  0.50000000  0.66251000  1
  Cu  Cu7  1  0.16401200  0.00000000  0.33749000  1
  Cu  Cu8  1  0.83598800  0.00000000  0.66251000  1
  Cu  Cu9  1  0.66401200  0.50000000  0.33749000  1
  O  O10  1  0.16405000  0.50000000  0.09978200  1
  O  O11  1  0.49498000  0.50000000  0.77859500  1
  O  O12  1  0.32165700  0.00000000  0.42736300  1
  O  O13  1  0.00502000  0.00000000  0.22140500  1
  O  O14  1  0.33595000  0.00000000  0.90021800  1
  O  O15  1  0.17834300  0.50000000  0.57263700  1
  O  O16  1  0.66405000  0.00000000  0.09978200  1
  O  O17  1  0.99498000  0.00000000  0.77859500  1
  O  O18  1  0.82165700  0.50000000  0.42736300  1
  O  O19  1  0.50502000  0.50000000  0.22140500  1
  O  O20  1  0.83595000  0.50000000  0.90021800  1
  O  O21  1  0.67834300  0.00000000  0.57263700  1
