# generated using pymatgen
data_Li3V3P8O29
_symmetry_space_group_name_H-M   'P 1'
_cell_length_a   16.86206200
_cell_length_b   9.75524800
_cell_length_c   14.31226636
_cell_angle_alpha   90.00000000
_cell_angle_beta   90.24826719
_cell_angle_gamma   90.00000000
_symmetry_Int_Tables_number   1
_chemical_formula_structural   Li3V3P8O29
_chemical_formula_sum   'Li12 V12 P32 O116'
_cell_volume   2354.25406771
_cell_formula_units_Z   4
loop_
 _symmetry_equiv_pos_site_id
 _symmetry_equiv_pos_as_xyz
  1  'x, y, z'
loop_
 _atom_site_type_symbol
 _atom_site_label
 _atom_site_symmetry_multiplicity
 _atom_site_fract_x
 _atom_site_fract_y
 _atom_site_fract_z
 _atom_site_occupancy
  Li  Li0  1  0.38321900  0.70937100  0.44110700  1
  Li  Li1  1  0.45272600  0.78046300  0.94160900  1
  Li  Li2  1  0.38321900  0.29062900  0.94110700  1
  Li  Li3  1  0.45272600  0.21953700  0.44160900  1
  Li  Li4  1  0.02775050  0.98759150  0.99663900  1
  Li  Li5  1  0.02775050  0.01240850  0.49663900  1
  Li  Li6  1  0.88321900  0.20937100  0.44110700  1
  Li  Li7  1  0.95272600  0.28046300  0.94160900  1
  Li  Li8  1  0.88321900  0.79062900  0.94110700  1
  Li  Li9  1  0.95272600  0.71953700  0.44160900  1
  Li  Li10  1  0.52775050  0.48759150  0.99663900  1
  Li  Li11  1  0.52775050  0.51240850  0.49663900  1
  V  V12  1  0.50043800  0.93541500  0.74786300  1
  V  V13  1  0.50043800  0.06458500  0.24786300  1
  V  V14  1  0.21797600  0.21506300  0.25333300  1
  V  V15  1  0.77845750  0.78109550  0.74828200  1
  V  V16  1  0.21797600  0.78493700  0.75333300  1
  V  V17  1  0.77845750  0.21890450  0.24828200  1
  V  V18  1  0.00043800  0.43541500  0.74786300  1
  V  V19  1  0.00043800  0.56458500  0.24786300  1
  V  V20  1  0.71797600  0.71506300  0.25333300  1
  V  V21  1  0.27845750  0.28109550  0.74828200  1
  V  V22  1  0.71797600  0.28493700  0.75333300  1
  V  V23  1  0.27845750  0.71890450  0.24828200  1
  P  P24  1  0.15051000  0.93378900  0.16029100  1
  P  P25  1  0.15051000  0.06621100  0.66029100  1
  P  P26  1  0.38646450  0.69908550  0.65615000  1
  P  P27  1  0.33524950  0.00040550  0.86845600  1
  P  P28  1  0.33524950  0.99959450  0.36845600  1
  P  P29  1  0.45443450  0.76920950  0.15711000  1
  P  P30  1  0.54278900  0.76313900  0.33712200  1
  P  P31  1  0.38646450  0.30091450  0.15615000  1
  P  P32  1  0.60926100  0.69419700  0.84338300  1
  P  P33  1  0.45443450  0.23079050  0.65711000  1
  P  P34  1  0.54278900  0.23686100  0.83712200  1
  P  P35  1  0.66654700  0.00413600  0.63440600  1
  P  P36  1  0.66654700  0.99586400  0.13440600  1
  P  P37  1  0.60926100  0.30580300  0.34338300  1
  P  P38  1  0.84739100  0.93293900  0.33710200  1
  P  P39  1  0.84739100  0.06706100  0.83710200  1
  P  P40  1  0.65051000  0.43378900  0.16029100  1
  P  P41  1  0.65051000  0.56621100  0.66029100  1
  P  P42  1  0.88646450  0.19908550  0.65615000  1
  P  P43  1  0.83524950  0.50040550  0.86845600  1
  P  P44  1  0.83524950  0.49959450  0.36845600  1
  P  P45  1  0.95443450  0.26920950  0.15711000  1
  P  P46  1  0.04278900  0.26313900  0.33712200  1
  P  P47  1  0.88646450  0.80091450  0.15615000  1
  P  P48  1  0.10926100  0.19419700  0.84338300  1
  P  P49  1  0.95443450  0.73079050  0.65711000  1
  P  P50  1  0.04278900  0.73686100  0.83712200  1
  P  P51  1  0.16654700  0.50413600  0.63440600  1
  P  P52  1  0.16654700  0.49586400  0.13440600  1
  P  P53  1  0.10926100  0.80580300  0.34338300  1
  P  P54  1  0.34739100  0.43293900  0.33710200  1
  P  P55  1  0.34739100  0.56706100  0.83710200  1
  O  O56  1  0.59973300  0.39168600  0.42743100  1
  O  O57  1  0.17224100  0.91266800  0.67143000  1
  O  O58  1  0.59973300  0.60831400  0.92743100  1
  O  O59  1  0.17224100  0.08733200  0.17143000  1
  O  O60  1  0.22940400  0.84931700  0.17310800  1
  O  O61  1  0.26120050  0.92717950  0.82327600  1
  O  O62  1  0.30836100  0.77813800  0.67349800  1
  O  O63  1  0.39980450  0.60923550  0.91594900  1
  O  O64  1  0.36835050  0.71687050  0.17241300  1
  O  O65  1  0.26120050  0.07282050  0.32327600  1
  O  O66  1  0.22940400  0.15068300  0.67310800  1
  O  O67  1  0.33543200  0.84985500  0.32787300  1
  O  O68  1  0.33889900  0.99733100  0.97232100  1
  O  O69  1  0.33889900  0.00266900  0.47232100  1
  O  O70  1  0.40885150  0.92198850  0.82628300  1
  O  O71  1  0.30836100  0.22186200  0.17349800  1
  O  O72  1  0.33543200  0.15014500  0.82787300  1
  O  O73  1  0.45727000  0.80005500  0.67230700  1
  O  O74  1  0.50559700  0.70326200  0.24015900  1
  O  O75  1  0.49752900  0.70419100  0.41696100  1
  O  O76  1  0.48726100  0.72760300  0.06531100  1
  O  O77  1  0.45447050  0.92705650  0.17423700  1
  O  O78  1  0.40885150  0.07801150  0.32628300  1
  O  O79  1  0.54217350  0.80471750  0.83711700  1
  O  O80  1  0.45447050  0.07294350  0.67423700  1
  O  O81  1  0.36835050  0.28312950  0.67241300  1
  O  O82  1  0.59814900  0.60227400  0.75073000  1
  O  O83  1  0.10428900  0.09694500  0.57540000  1
  O  O84  1  0.39980450  0.39076450  0.41594900  1
  O  O85  1  0.63026100  0.71471500  0.33510700  1
  O  O86  1  0.54011250  0.92116450  0.32718600  1
  O  O87  1  0.45727000  0.19994500  0.17230700  1
  O  O88  1  0.59224800  0.92978600  0.67934000  1
  O  O89  1  0.54011250  0.07883550  0.82718600  1
  O  O90  1  0.49752900  0.29580900  0.91696100  1
  O  O91  1  0.48726100  0.27239700  0.56531100  1
  O  O92  1  0.50559700  0.29673800  0.74015900  1
  O  O93  1  0.54217350  0.19528250  0.33711700  1
  O  O94  1  0.66778550  0.85125450  0.18065000  1
  O  O95  1  0.69057800  0.76798800  0.82929800  1
  O  O96  1  0.59224800  0.07021400  0.17934000  1
  O  O97  1  0.66715750  0.99856250  0.03122200  1
  O  O98  1  0.66715750  0.00143750  0.53122200  1
  O  O99  1  0.66778550  0.14874550  0.68065000  1
  O  O100  1  0.76929850  0.84957150  0.32754500  1
  O  O101  1  0.73937550  0.92598450  0.68144200  1
  O  O102  1  0.63026100  0.28528500  0.83510700  1
  O  O103  1  0.59814900  0.39772600  0.25073000  1
  O  O104  1  0.10428900  0.90305500  0.07540000  1
  O  O105  1  0.69057800  0.23201200  0.32929800  1
  O  O106  1  0.73937550  0.07401550  0.18144200  1
  O  O107  1  0.76929850  0.15042850  0.82754500  1
  O  O108  1  0.82788500  0.91113900  0.83901300  1
  O  O109  1  0.39268000  0.37021400  0.06399200  1
  O  O110  1  0.89401750  0.91163350  0.23885400  1
  O  O111  1  0.82788500  0.08886100  0.33901300  1
  O  O112  1  0.39268000  0.62978600  0.56399200  1
  O  O113  1  0.89401750  0.08836650  0.73885400  1
  O  O114  1  0.09973300  0.89168600  0.42743100  1
  O  O115  1  0.67224100  0.41266800  0.67143000  1
  O  O116  1  0.09973300  0.10831400  0.92743100  1
  O  O117  1  0.67224100  0.58733200  0.17143000  1
  O  O118  1  0.72940400  0.34931700  0.17310800  1
  O  O119  1  0.76120050  0.42717950  0.82327600  1
  O  O120  1  0.80836100  0.27813800  0.67349800  1
  O  O121  1  0.89980450  0.10923550  0.91594900  1
  O  O122  1  0.86835050  0.21687050  0.17241300  1
  O  O123  1  0.76120050  0.57282050  0.32327600  1
  O  O124  1  0.72940400  0.65068300  0.67310800  1
  O  O125  1  0.83543200  0.34985500  0.32787300  1
  O  O126  1  0.83889900  0.49733100  0.97232100  1
  O  O127  1  0.83889900  0.50266900  0.47232100  1
  O  O128  1  0.90885150  0.42198850  0.82628300  1
  O  O129  1  0.80836100  0.72186200  0.17349800  1
  O  O130  1  0.83543200  0.65014500  0.82787300  1
  O  O131  1  0.95727000  0.30005500  0.67230700  1
  O  O132  1  0.00559700  0.20326200  0.24015900  1
  O  O133  1  0.99752900  0.20419100  0.41696100  1
  O  O134  1  0.98726100  0.22760300  0.06531100  1
  O  O135  1  0.95447050  0.42705650  0.17423700  1
  O  O136  1  0.90885150  0.57801150  0.32628300  1
  O  O137  1  0.04217350  0.30471750  0.83711700  1
  O  O138  1  0.95447050  0.57294350  0.67423700  1
  O  O139  1  0.86835050  0.78312950  0.67241300  1
  O  O140  1  0.09814900  0.10227400  0.75073000  1
  O  O141  1  0.60428900  0.59694500  0.57540000  1
  O  O142  1  0.89980450  0.89076450  0.41594900  1
  O  O143  1  0.13026100  0.21471500  0.33510700  1
  O  O144  1  0.04011250  0.42116450  0.32718600  1
  O  O145  1  0.95727000  0.69994500  0.17230700  1
  O  O146  1  0.09224800  0.42978600  0.67934000  1
  O  O147  1  0.04011250  0.57883550  0.82718600  1
  O  O148  1  0.99752900  0.79580900  0.91696100  1
  O  O149  1  0.98726100  0.77239700  0.56531100  1
  O  O150  1  0.00559700  0.79673800  0.74015900  1
  O  O151  1  0.04217350  0.69528250  0.33711700  1
  O  O152  1  0.16778550  0.35125450  0.18065000  1
  O  O153  1  0.19057800  0.26798800  0.82929800  1
  O  O154  1  0.09224800  0.57021400  0.17934000  1
  O  O155  1  0.16715750  0.49856250  0.03122200  1
  O  O156  1  0.16715750  0.50143750  0.53122200  1
  O  O157  1  0.16778550  0.64874550  0.68065000  1
  O  O158  1  0.26929850  0.34957150  0.32754500  1
  O  O159  1  0.23937550  0.42598450  0.68144200  1
  O  O160  1  0.13026100  0.78528500  0.83510700  1
  O  O161  1  0.09814900  0.89772600  0.25073000  1
  O  O162  1  0.60428900  0.40305500  0.07540000  1
  O  O163  1  0.19057800  0.73201200  0.32929800  1
  O  O164  1  0.23937550  0.57401550  0.18144200  1
  O  O165  1  0.26929850  0.65042850  0.82754500  1
  O  O166  1  0.32788500  0.41113900  0.83901300  1
  O  O167  1  0.89268000  0.87021400  0.06399200  1
  O  O168  1  0.39401750  0.41163350  0.23885400  1
  O  O169  1  0.32788500  0.58886100  0.33901300  1
  O  O170  1  0.89268000  0.12978600  0.56399200  1
  O  O171  1  0.39401750  0.58836650  0.73885400  1
