# generated using pymatgen
data_Mn2OF3
_symmetry_space_group_name_H-M   'P 1'
_cell_length_a   6.70320200
_cell_length_b   7.10434000
_cell_length_c   15.91330800
_cell_angle_alpha   90.00000000
_cell_angle_beta   90.00000000
_cell_angle_gamma   90.00000000
_symmetry_Int_Tables_number   1
_chemical_formula_structural   Mn2OF3
_chemical_formula_sum   'Mn20 O10 F30'
_cell_volume   757.82078620
_cell_formula_units_Z   10
loop_
 _symmetry_equiv_pos_site_id
 _symmetry_equiv_pos_as_xyz
  1  'x, y, z'
loop_
 _atom_site_type_symbol
 _atom_site_label
 _atom_site_symmetry_multiplicity
 _atom_site_fract_x
 _atom_site_fract_y
 _atom_site_fract_z
 _atom_site_occupancy
  Mn  Mn0  1  0.01464500  0.00000000  0.39933600  1
  Mn  Mn1  1  0.02338400  0.00000000  0.19933000  1
  Mn  Mn2  1  0.96411300  0.00000000  0.00000000  1
  Mn  Mn3  1  0.01464500  0.00000000  0.60066400  1
  Mn  Mn4  1  0.02338400  0.00000000  0.80067000  1
  Mn  Mn5  1  0.48021500  0.00000000  0.50000000  1
  Mn  Mn6  1  0.49482900  0.00000000  0.09983500  1
  Mn  Mn7  1  0.48822300  0.00000000  0.29963700  1
  Mn  Mn8  1  0.49482900  0.00000000  0.90016500  1
  Mn  Mn9  1  0.48822300  0.00000000  0.70036300  1
  Mn  Mn10  1  0.51464500  0.50000000  0.39933600  1
  Mn  Mn11  1  0.52338400  0.50000000  0.19933000  1
  Mn  Mn12  1  0.46411300  0.50000000  0.00000000  1
  Mn  Mn13  1  0.51464500  0.50000000  0.60066400  1
  Mn  Mn14  1  0.52338400  0.50000000  0.80067000  1
  Mn  Mn15  1  0.98021500  0.50000000  0.50000000  1
  Mn  Mn16  1  0.99482900  0.50000000  0.09983500  1
  Mn  Mn17  1  0.98822300  0.50000000  0.29963700  1
  Mn  Mn18  1  0.99482900  0.50000000  0.90016500  1
  Mn  Mn19  1  0.98822300  0.50000000  0.70036300  1
  O  O20  1  0.32016500  0.00000000  0.19792500  1
  O  O21  1  0.30669600  0.00000000  0.39770600  1
  O  O22  1  0.30669600  0.00000000  0.60229400  1
  O  O23  1  0.32016500  0.00000000  0.80207500  1
  O  O24  1  0.66535100  0.00000000  0.00000000  1
  O  O25  1  0.82016500  0.50000000  0.19792500  1
  O  O26  1  0.80669600  0.50000000  0.39770600  1
  O  O27  1  0.80669600  0.50000000  0.60229400  1
  O  O28  1  0.82016500  0.50000000  0.80207500  1
  O  O29  1  0.16535100  0.50000000  0.00000000  1
  F  F30  1  0.49485450  0.29820450  0.89979100  1
  F  F31  1  0.49485450  0.29820450  0.10020900  1
  F  F32  1  0.50566950  0.30525050  0.30029900  1
  F  F33  1  0.50164400  0.30645900  0.50000000  1
  F  F34  1  0.50566950  0.30525050  0.69970100  1
  F  F35  1  0.28002300  0.00000000  0.00000000  1
  F  F36  1  0.70573800  0.00000000  0.20412400  1
  F  F37  1  0.69877500  0.00000000  0.39948900  1
  F  F38  1  0.69877500  0.00000000  0.60051100  1
  F  F39  1  0.70573800  0.00000000  0.79587600  1
  F  F40  1  0.49485450  0.70179550  0.10020900  1
  F  F41  1  0.50566950  0.69474950  0.30029900  1
  F  F42  1  0.50164400  0.69354100  0.50000000  1
  F  F43  1  0.49485450  0.70179550  0.89979100  1
  F  F44  1  0.50566950  0.69474950  0.69970100  1
  F  F45  1  0.99485450  0.79820450  0.89979100  1
  F  F46  1  0.99485450  0.79820450  0.10020900  1
  F  F47  1  0.00566950  0.80525050  0.30029900  1
  F  F48  1  0.00164400  0.80645900  0.50000000  1
  F  F49  1  0.00566950  0.80525050  0.69970100  1
  F  F50  1  0.78002300  0.50000000  0.00000000  1
  F  F51  1  0.20573800  0.50000000  0.20412400  1
  F  F52  1  0.19877500  0.50000000  0.39948900  1
  F  F53  1  0.19877500  0.50000000  0.60051100  1
  F  F54  1  0.20573800  0.50000000  0.79587600  1
  F  F55  1  0.99485450  0.20179550  0.10020900  1
  F  F56  1  0.00566950  0.19474950  0.30029900  1
  F  F57  1  0.00164400  0.19354100  0.50000000  1
  F  F58  1  0.99485450  0.20179550  0.89979100  1
  F  F59  1  0.00566950  0.19474950  0.69970100  1
