# generated using pymatgen
data_Li2CrFeO4
_symmetry_space_group_name_H-M   'P 1'
_cell_length_a   9.88230600
_cell_length_b   8.89112400
_cell_length_c   5.13403848
_cell_angle_alpha   90.00000000
_cell_angle_beta   99.80295456
_cell_angle_gamma   90.00000000
_symmetry_Int_Tables_number   1
_chemical_formula_structural   Li2CrFeO4
_chemical_formula_sum   'Li12 Cr6 Fe6 O24'
_cell_volume   444.51482953
_cell_formula_units_Z   6
loop_
 _symmetry_equiv_pos_site_id
 _symmetry_equiv_pos_as_xyz
  1  'x, y, z'
loop_
 _atom_site_type_symbol
 _atom_site_label
 _atom_site_symmetry_multiplicity
 _atom_site_fract_x
 _atom_site_fract_y
 _atom_site_fract_z
 _atom_site_occupancy
  Li  Li0  1  0.24956500  0.91526200  0.25033900  1
  Li  Li1  1  0.74964950  0.75012250  0.24481600  1
  Li  Li2  1  0.25035050  0.75012250  0.75518400  1
  Li  Li3  1  0.25172150  0.08392150  0.75035800  1
  Li  Li4  1  0.74827850  0.08392150  0.24964200  1
  Li  Li5  1  0.75043500  0.91526200  0.74966100  1
  Li  Li6  1  0.74956500  0.41526200  0.25033900  1
  Li  Li7  1  0.24964950  0.25012250  0.24481600  1
  Li  Li8  1  0.75035050  0.25012250  0.75518400  1
  Li  Li9  1  0.75172150  0.58392150  0.75035800  1
  Li  Li10  1  0.24827850  0.58392150  0.24964200  1
  Li  Li11  1  0.25043500  0.41526200  0.74966100  1
  Cr  Cr12  1  0.50000000  0.91948400  0.00000000  1
  Cr  Cr13  1  0.50000000  0.08511900  0.50000000  1
  Cr  Cr14  1  0.50000000  0.41421600  0.50000000  1
  Cr  Cr15  1  0.00000000  0.41948400  0.00000000  1
  Cr  Cr16  1  0.00000000  0.58511900  0.50000000  1
  Cr  Cr17  1  0.00000000  0.91421600  0.50000000  1
  Fe  Fe18  1  0.50000000  0.24994100  0.00000000  1
  Fe  Fe19  1  0.50000000  0.58057200  0.00000000  1
  Fe  Fe20  1  0.50000000  0.74965600  0.50000000  1
  Fe  Fe21  1  0.00000000  0.74994100  0.00000000  1
  Fe  Fe22  1  0.00000000  0.08057200  0.00000000  1
  Fe  Fe23  1  0.00000000  0.24965600  0.50000000  1
  O  O24  1  0.11254200  0.91312500  0.87072000  1
  O  O25  1  0.38898900  0.08610200  0.12825900  1
  O  O26  1  0.61401750  0.75176050  0.87221200  1
  O  O27  1  0.61101100  0.08610200  0.87174100  1
  O  O28  1  0.38598250  0.75176050  0.12778800  1
  O  O29  1  0.11505800  0.08167700  0.37236500  1
  O  O30  1  0.61082050  0.25036350  0.36398900  1
  O  O31  1  0.88745800  0.91312500  0.12928000  1
  O  O32  1  0.38676200  0.91807000  0.63044400  1
  O  O33  1  0.61323800  0.91807000  0.36955600  1
  O  O34  1  0.38917950  0.25036350  0.63601100  1
  O  O35  1  0.88494200  0.08167700  0.62763500  1
  O  O36  1  0.61254200  0.41312500  0.87072000  1
  O  O37  1  0.88898900  0.58610200  0.12825900  1
  O  O38  1  0.11401750  0.25176050  0.87221200  1
  O  O39  1  0.11101100  0.58610200  0.87174100  1
  O  O40  1  0.88598250  0.25176050  0.12778800  1
  O  O41  1  0.61505800  0.58167700  0.37236500  1
  O  O42  1  0.11082050  0.75036350  0.36398900  1
  O  O43  1  0.38745800  0.41312500  0.12928000  1
  O  O44  1  0.88676200  0.41807000  0.63044400  1
  O  O45  1  0.11323800  0.41807000  0.36955600  1
  O  O46  1  0.88917950  0.75036350  0.63601100  1
  O  O47  1  0.38494200  0.58167700  0.62763500  1
