# generated using pymatgen
data_Sc7V9O24
_symmetry_space_group_name_H-M   'P 1'
_cell_length_a   8.38269792
_cell_length_b   8.40801255
_cell_length_c   8.46754290
_cell_angle_alpha   109.71716906
_cell_angle_beta   109.50327251
_cell_angle_gamma   108.83902942
_symmetry_Int_Tables_number   1
_chemical_formula_structural   Sc7V9O24
_chemical_formula_sum   'Sc7 V9 O24'
_cell_volume   461.39814529
_cell_formula_units_Z   1
loop_
 _symmetry_equiv_pos_site_id
 _symmetry_equiv_pos_as_xyz
  1  'x, y, z'
loop_
 _atom_site_type_symbol
 _atom_site_label
 _atom_site_symmetry_multiplicity
 _atom_site_fract_x
 _atom_site_fract_y
 _atom_site_fract_z
 _atom_site_occupancy
  Sc  Sc0  1  0.78571851  0.53480999  0.75060892  1
  Sc  Sc1  1  0.74742915  0.28792166  0.46148468  1
  Sc  Sc2  1  0.21330603  0.46257953  0.25024471  1
  Sc  Sc3  1  0.71399101  0.96404791  0.25057338  1
  Sc  Sc4  1  0.03940078  0.25169574  0.71372828  1
  Sc  Sc5  1  0.46065947  0.74973944  0.78560052  1
  Sc  Sc6  1  0.75369923  0.78789546  0.96303125  1
  V  V7  1  0.49345541  0.99719922  0.00539277  1
  V  V8  1  0.24931922  0.21127336  0.03682727  1
  V  V9  1  0.96880892  0.75176262  0.28207353  1
  V  V10  1  0.53090409  0.24661305  0.21926160  1
  V  V11  1  0.28737370  0.03734205  0.75145117  1
  V  V12  1  0.99849318  0.50033636  0.00013186  1
  V  V13  1  0.50252754  0.50107222  0.49783249  1
  V  V14  1  0.25077147  0.71832480  0.53411109  1
  V  V15  1  0.00502612  0.99981510  0.49773753  1
  O  O16  1  0.53056280  0.26388674  0.95995830  1
  O  O17  1  0.72282431  0.49455088  0.54388636  1
  O  O18  1  0.27154966  0.23105141  0.27378157  1
  O  O19  1  0.76625874  0.04882359  0.96268519  1
  O  O20  1  0.99606727  0.45813588  0.77717473  1
  O  O21  1  0.48502978  0.27090259  0.45836961  1
  O  O22  1  0.77508316  0.23110170  0.23302440  1
  O  O23  1  0.97146725  0.01216785  0.26392859  1
  O  O24  1  0.26852962  0.26335470  0.77661520  1
  O  O25  1  0.53668660  0.03826590  0.72929106  1
  O  O26  1  0.75671040  0.52721001  0.01773615  1
  O  O27  1  0.04703976  0.76990691  0.48549062  1
  O  O28  1  0.23354274  0.45932885  0.98972967  1
  O  O29  1  0.95413709  0.22522775  0.51127179  1
  O  O30  1  0.45165023  0.96634059  0.27843697  1
  O  O31  1  0.74695881  0.73020095  0.22524253  1
  O  O32  1  0.22359167  0.77477101  0.75931509  1
  O  O33  1  0.04220502  0.99157511  0.73122351  1
  O  O34  1  0.50876349  0.72989732  0.53698100  1
  O  O35  1  0.00854667  0.54735719  0.22221050  1
  O  O36  1  0.73524816  0.77122513  0.71951957  1
  O  O37  1  0.22594414  0.94673265  0.04320352  1
  O  O38  1  0.27699965  0.51489127  0.45539517  1
  O  O39  1  0.46371614  0.73066452  0.04544083  1
