# generated using pymatgen
data_Mn6O5F7
_symmetry_space_group_name_H-M   'P 1'
_cell_length_a   4.67736060
_cell_length_b   5.74669305
_cell_length_c   15.67342346
_cell_angle_alpha   90.03078798
_cell_angle_beta   90.61532970
_cell_angle_gamma   91.65221437
_symmetry_Int_Tables_number   1
_chemical_formula_structural   Mn6O5F7
_chemical_formula_sum   'Mn12 O10 F14'
_cell_volume   421.09193751
_cell_formula_units_Z   2
loop_
 _symmetry_equiv_pos_site_id
 _symmetry_equiv_pos_as_xyz
  1  'x, y, z'
loop_
 _atom_site_type_symbol
 _atom_site_label
 _atom_site_symmetry_multiplicity
 _atom_site_fract_x
 _atom_site_fract_y
 _atom_site_fract_z
 _atom_site_occupancy
  Mn  Mn0  1  0.01486400  0.82366400  0.58062700  1
  Mn  Mn1  1  0.01998200  0.15498100  0.75696900  1
  Mn  Mn2  1  0.03428200  0.83321700  0.91866300  1
  Mn  Mn3  1  0.00446800  0.85024500  0.25920300  1
  Mn  Mn4  1  0.02416600  0.14287500  0.42305900  1
  Mn  Mn5  1  0.02075600  0.13940600  0.08872900  1
  Mn  Mn6  1  0.48469600  0.66068000  0.41126700  1
  Mn  Mn7  1  0.50360200  0.67311000  0.07160700  1
  Mn  Mn8  1  0.51074000  0.64769700  0.74718700  1
  Mn  Mn9  1  0.48994400  0.35918700  0.91496800  1
  Mn  Mn10  1  0.49609100  0.35873600  0.57760100  1
  Mn  Mn11  1  0.49734700  0.35276600  0.24781900  1
  O  O12  1  0.21292200  0.89322100  0.36607000  1
  O  O13  1  0.22013700  0.88339500  0.02756000  1
  O  O14  1  0.23550400  0.11306300  0.86595500  1
  O  O15  1  0.22450000  0.10897400  0.52969700  1
  O  O16  1  0.22716500  0.11265300  0.20156600  1
  O  O17  1  0.28865000  0.60569000  0.85184500  1
  O  O18  1  0.28271300  0.59895500  0.51696700  1
  O  O19  1  0.72499200  0.61815900  0.96938500  1
  O  O20  1  0.72226400  0.61217500  0.63769300  1
  O  O21  1  0.70543900  0.62715800  0.30547900  1
  F  F22  1  0.23472600  0.88417800  0.69538700  1
  F  F23  1  0.25908100  0.39105800  0.69038400  1
  F  F24  1  0.25204900  0.39237200  0.35350700  1
  F  F25  1  0.26761100  0.61495500  0.18252700  1
  F  F26  1  0.25434300  0.38682500  0.02704400  1
  F  F27  1  0.73743000  0.38209300  0.80213100  1
  F  F28  1  0.75157800  0.37862700  0.46546800  1
  F  F29  1  0.72885100  0.38490100  0.13617700  1
  F  F30  1  0.78278800  0.87300400  0.81049100  1
  F  F31  1  0.74801500  0.88011900  0.47631700  1
  F  F32  1  0.75762200  0.12114800  0.64288900  1
  F  F33  1  0.75189900  0.12838400  0.97801700  1
  F  F34  1  0.76707100  0.87992200  0.15117300  1
  F  F35  1  0.76171000  0.13240700  0.31857400  1
