# generated using pymatgen
data_NdCoC2
_symmetry_space_group_name_H-M   'P 1'
_cell_length_a   5.36944800
_cell_length_b   5.37214000
_cell_length_c   7.40485963
_cell_angle_alpha   90.00000000
_cell_angle_beta   101.66099601
_cell_angle_gamma   90.00000000
_symmetry_Int_Tables_number   1
_chemical_formula_structural   NdCoC2
_chemical_formula_sum   'Nd4 Co4 C8'
_cell_volume   209.18783977
_cell_formula_units_Z   4
loop_
 _symmetry_equiv_pos_site_id
 _symmetry_equiv_pos_as_xyz
  1  'x, y, z'
loop_
 _atom_site_type_symbol
 _atom_site_label
 _atom_site_symmetry_multiplicity
 _atom_site_fract_x
 _atom_site_fract_y
 _atom_site_fract_z
 _atom_site_occupancy
  Nd  Nd0  1  0.49642350  0.42726550  0.54798600  1
  Nd  Nd1  1  0.49642350  0.57273450  0.04798600  1
  Nd  Nd2  1  0.99642350  0.92726550  0.54798600  1
  Nd  Nd3  1  0.99642350  0.07273450  0.04798600  1
  Co  Co4  1  0.55421300  0.92887700  0.74244200  1
  Co  Co5  1  0.55421300  0.07112300  0.24244200  1
  Co  Co6  1  0.05421300  0.42887700  0.74244200  1
  Co  Co7  1  0.05421300  0.57112300  0.24244200  1
  C  C8  1  0.47923700  0.07568800  0.97479800  1
  C  C9  1  0.47923700  0.92431200  0.47479800  1
  C  C10  1  0.32612650  0.81923850  0.32177300  1
  C  C11  1  0.32612650  0.18076150  0.82177300  1
  C  C12  1  0.97923700  0.57568800  0.97479800  1
  C  C13  1  0.97923700  0.42431200  0.47479800  1
  C  C14  1  0.82612650  0.31923850  0.32177300  1
  C  C15  1  0.82612650  0.68076150  0.82177300  1
