# generated using pymatgen
data_Na6(WO3)7
_symmetry_space_group_name_H-M   'P 1'
_cell_length_a   14.80156605
_cell_length_b   14.80156605
_cell_length_c   6.85561365
_cell_angle_alpha   90.00000000
_cell_angle_beta   90.00000000
_cell_angle_gamma   120.00000000
_symmetry_Int_Tables_number   1
_chemical_formula_structural   Na6(WO3)7
_chemical_formula_sum   'Na18 W21 O63'
_cell_volume   1300.74540772
_cell_formula_units_Z   3
loop_
 _symmetry_equiv_pos_site_id
 _symmetry_equiv_pos_as_xyz
  1  'x, y, z'
loop_
 _atom_site_type_symbol
 _atom_site_label
 _atom_site_symmetry_multiplicity
 _atom_site_fract_x
 _atom_site_fract_y
 _atom_site_fract_z
 _atom_site_occupancy
  Na  Na0  1  0.14314033  0.42904967  0.99959867  1
  Na  Na1  1  0.95257600  0.19019300  0.33293200  1
  Na  Na2  1  0.90428367  0.38075733  0.66626533  1
  Na  Na3  1  0.76238300  0.95257600  0.66706800  1
  Na  Na4  1  0.71409067  0.14314033  0.00040133  1
  Na  Na5  1  0.52352633  0.90428367  0.33373467  1
  Na  Na6  1  0.80980700  0.76238300  0.33293200  1
  Na  Na7  1  0.61924267  0.52352633  0.66626533  1
  Na  Na8  1  0.57095033  0.71409067  0.99959867  1
  Na  Na9  1  0.42904967  0.28590933  0.00040133  1
  Na  Na10  1  0.38075733  0.47647367  0.33373467  1
  Na  Na11  1  0.19019300  0.23761700  0.66706800  1
  Na  Na12  1  0.47647367  0.09571633  0.66626533  1
  Na  Na13  1  0.28590933  0.85685967  0.99959867  1
  Na  Na14  1  0.23761700  0.04742400  0.33293200  1
  Na  Na15  1  0.09571633  0.61924267  0.33373467  1
  Na  Na16  1  0.04742400  0.80980700  0.66706800  1
  Na  Na17  1  0.85685967  0.57095033  0.00040133  1
  W  W18  1  0.90341267  0.38129333  0.16718033  1
  W  W19  1  0.14454733  0.42992067  0.50051367  1
  W  W20  1  0.95204000  0.18878600  0.83384700  1
  W  W21  1  0.52211933  0.90341267  0.83281967  1
  W  W22  1  0.76325400  0.95204000  0.16615300  1
  W  W23  1  0.71462667  0.14454733  0.49948633  1
  W  W24  1  0.00000000  0.00000000  0.50000000  1
  W  W25  1  0.57007933  0.71462667  0.50051367  1
  W  W26  1  0.81121400  0.76325400  0.83384700  1
  W  W27  1  0.61870667  0.52211933  0.16718033  1
  W  W28  1  0.18878600  0.23674600  0.16615300  1
  W  W29  1  0.42992067  0.28537333  0.49948633  1
  W  W30  1  0.38129333  0.47788067  0.83281967  1
  W  W31  1  0.66666667  0.33333333  0.83333333  1
  W  W32  1  0.23674600  0.04796000  0.83384700  1
  W  W33  1  0.47788067  0.09658733  0.16718033  1
  W  W34  1  0.28537333  0.85545267  0.50051367  1
  W  W35  1  0.85545267  0.57007933  0.49948633  1
  W  W36  1  0.09658733  0.61870667  0.83281967  1
  W  W37  1  0.04796000  0.81121400  0.16615300  1
  W  W38  1  0.33333333  0.66666667  0.16666667  1
  O  O39  1  0.07284000  0.21647500  0.00075700  1
  O  O40  1  0.97608633  0.09602567  0.66272167  1
  O  O41  1  0.88006067  0.97608633  0.33727833  1
  O  O42  1  0.66666667  0.83333333  0.33333333  1
  O  O43  1  0.02401367  0.40495033  0.33365833  1
  O  O44  1  0.23730767  0.54672733  0.32938833  1
  O  O45  1  0.81030167  0.26049333  0.33409033  1
  O  O46  1  0.04760333  0.30931967  0.66699167  1
  O  O47  1  0.73828367  0.04760333  0.33300833  1
  O  O48  1  0.54980833  0.81030167  0.66590967  1
  O  O49  1  0.11685833  0.52303167  0.66742367  1
  O  O50  1  0.92838300  0.28573000  0.00032500  1
  O  O51  1  0.83333333  0.16666667  0.66666667  1
  O  O52  1  0.61906333  0.02401367  0.66634167  1
  O  O53  1  0.85636500  0.07284000  0.99924300  1
  O  O54  1  0.64265300  0.92838300  0.99967500  1
  O  O55  1  0.78660600  0.35724700  0.99605500  1
  O  O56  1  0.42935900  0.78660600  0.00394500  1
  O  O57  1  0.69058033  0.23730767  0.67061167  1
  O  O58  1  0.16666667  0.33333333  0.33333333  1
  O  O59  1  0.59382667  0.11685833  0.33257633  1
  O  O60  1  0.73950667  0.54980833  0.33409033  1
  O  O61  1  0.64275300  0.42935900  0.99605500  1
  O  O62  1  0.54672733  0.30941967  0.67061167  1
  O  O63  1  0.33333333  0.16666667  0.66666667  1
  O  O64  1  0.69068033  0.73828367  0.66699167  1
  O  O65  1  0.90397433  0.88006067  0.66272167  1
  O  O66  1  0.47696833  0.59382667  0.66742367  1
  O  O67  1  0.71427000  0.64265300  0.00032500  1
  O  O68  1  0.40495033  0.38093667  0.66634167  1
  O  O69  1  0.21647500  0.14363500  0.99924300  1
  O  O70  1  0.78352500  0.85636500  0.00075700  1
  O  O71  1  0.59504967  0.61906333  0.33365833  1
  O  O72  1  0.50000000  0.50000000  0.00000000  1
  O  O73  1  0.28573000  0.35734700  0.99967500  1
  O  O74  1  0.52303167  0.40617333  0.33257633  1
  O  O75  1  0.30931967  0.26171633  0.33300833  1
  O  O76  1  0.45327267  0.69058033  0.32938833  1
  O  O77  1  0.09602567  0.11993933  0.33727833  1
  O  O78  1  0.35724700  0.57064100  0.00394500  1
  O  O79  1  0.83333333  0.66666667  0.66666667  1
  O  O80  1  0.26049333  0.45019167  0.66590967  1
  O  O81  1  0.40617333  0.88314167  0.66742367  1
  O  O82  1  0.30941967  0.76269233  0.32938833  1
  O  O83  1  0.21339400  0.64275300  0.00394500  1
  O  O84  1  0.00000000  0.50000000  0.00000000  1
  O  O85  1  0.35734700  0.07161700  0.00032500  1
  O  O86  1  0.57064100  0.21339400  0.99605500  1
  O  O87  1  0.14363500  0.92716000  0.00075700  1
  O  O88  1  0.38093667  0.97598633  0.33365833  1
  O  O89  1  0.07161700  0.71427000  0.99967500  1
  O  O90  1  0.88314167  0.47696833  0.33257633  1
  O  O91  1  0.45019167  0.18969833  0.33409033  1
  O  O92  1  0.26171633  0.95239667  0.66699167  1
  O  O93  1  0.16666667  0.83333333  0.33333333  1
  O  O94  1  0.95239667  0.69068033  0.33300833  1
  O  O95  1  0.18969833  0.73950667  0.66590967  1
  O  O96  1  0.97598633  0.59504967  0.66634167  1
  O  O97  1  0.11993933  0.02391367  0.66272167  1
  O  O98  1  0.76269233  0.45327267  0.67061167  1
  O  O99  1  0.02391367  0.90397433  0.33727833  1
  O  O100  1  0.50000000  0.00000000  0.00000000  1
  O  O101  1  0.92716000  0.78352500  0.99924300  1
