# generated using pymatgen
data_VP4
_symmetry_space_group_name_H-M   'P 1'
_cell_length_a   5.26481000
_cell_length_b   10.99992400
_cell_length_c   5.84911834
_cell_angle_alpha   90.00000000
_cell_angle_beta   110.55621719
_cell_angle_gamma   90.00000000
_symmetry_Int_Tables_number   1
_chemical_formula_structural   VP4
_chemical_formula_sum   'V4 P16'
_cell_volume   317.16909535
_cell_formula_units_Z   4
loop_
 _symmetry_equiv_pos_site_id
 _symmetry_equiv_pos_as_xyz
  1  'x, y, z'
loop_
 _atom_site_type_symbol
 _atom_site_label
 _atom_site_symmetry_multiplicity
 _atom_site_fract_x
 _atom_site_fract_y
 _atom_site_fract_z
 _atom_site_occupancy
  V  V0  1  0.50000000  0.43776800  0.75000000  1
  V  V1  1  0.00000000  0.06223200  0.25000000  1
  V  V2  1  0.00000000  0.93776800  0.75000000  1
  V  V3  1  0.50000000  0.56223200  0.25000000  1
  P  P4  1  0.77410450  0.27776950  0.68978600  1
  P  P5  1  0.22589550  0.27776950  0.81021400  1
  P  P6  1  0.27470350  0.09010550  0.67666100  1
  P  P7  1  0.72529650  0.09010550  0.82333900  1
  P  P8  1  0.22529650  0.40989450  0.32333900  1
  P  P9  1  0.77470350  0.40989450  0.17666100  1
  P  P10  1  0.27410450  0.22223050  0.18978600  1
  P  P11  1  0.72589550  0.22223050  0.31021400  1
  P  P12  1  0.27410450  0.77776950  0.68978600  1
  P  P13  1  0.72589550  0.77776950  0.81021400  1
  P  P14  1  0.77470350  0.59010550  0.67666100  1
  P  P15  1  0.22529650  0.59010550  0.82333900  1
  P  P16  1  0.72529650  0.90989450  0.32333900  1
  P  P17  1  0.27470350  0.90989450  0.17666100  1
  P  P18  1  0.77410450  0.72223050  0.18978600  1
  P  P19  1  0.22589550  0.72223050  0.31021400  1
