# generated using pymatgen
data_Li2FeOF3
_symmetry_space_group_name_H-M   'P 1'
_cell_length_a   10.33127778
_cell_length_b   5.90275275
_cell_length_c   5.98225814
_cell_angle_alpha   90.00000000
_cell_angle_beta   124.60444529
_cell_angle_gamma   90.00000000
_symmetry_Int_Tables_number   1
_chemical_formula_structural   Li2FeOF3
_chemical_formula_sum   'Li8 Fe4 O4 F12'
_cell_volume   300.27717755
_cell_formula_units_Z   4
loop_
 _symmetry_equiv_pos_site_id
 _symmetry_equiv_pos_as_xyz
  1  'x, y, z'
loop_
 _atom_site_type_symbol
 _atom_site_label
 _atom_site_symmetry_multiplicity
 _atom_site_fract_x
 _atom_site_fract_y
 _atom_site_fract_z
 _atom_site_occupancy
  Li  Li0  1  0.00976150  0.00000000  0.50972400  1
  Li  Li1  1  0.87236875  0.50000000  0.10609500  1
  Li  Li2  1  0.75444975  0.73478075  0.51053000  1
  Li  Li3  1  0.75444975  0.26521925  0.51053000  1
  Li  Li4  1  0.50976150  0.50000000  0.50972400  1
  Li  Li5  1  0.37236875  0.00000000  0.10609500  1
  Li  Li6  1  0.25444975  0.23478075  0.51053000  1
  Li  Li7  1  0.25444975  0.76521925  0.51053000  1
  Fe  Fe8  1  0.10961300  0.50000000  0.87364700  1
  Fe  Fe9  1  0.00786675  0.00000000  0.98729800  1
  Fe  Fe10  1  0.60961300  0.00000000  0.87364700  1
  Fe  Fe11  1  0.50786675  0.50000000  0.98729800  1
  O  O12  1  0.99594550  0.76324300  0.76094300  1
  O  O13  1  0.99594550  0.23675700  0.76094300  1
  O  O14  1  0.49594550  0.26324300  0.76094300  1
  O  O15  1  0.49594550  0.73675700  0.76094300  1
  F  F16  1  0.24017600  0.00000000  0.72365600  1
  F  F17  1  0.24182275  0.00000000  0.25025700  1
  F  F18  1  0.75173250  0.00000000  0.26404000  1
  F  F19  1  0.75532075  0.00000000  0.75832100  1
  F  F20  1  0.00541125  0.77274075  0.24193600  1
  F  F21  1  0.00541125  0.22725925  0.24193600  1
  F  F22  1  0.74017600  0.50000000  0.72365600  1
  F  F23  1  0.74182275  0.50000000  0.25025700  1
  F  F24  1  0.25173250  0.50000000  0.26404000  1
  F  F25  1  0.25532075  0.50000000  0.75832100  1
  F  F26  1  0.50541125  0.27274075  0.24193600  1
  F  F27  1  0.50541125  0.72725925  0.24193600  1
