# generated using pymatgen
data_LiCuF4
_symmetry_space_group_name_H-M   'P 1'
_cell_length_a   14.93524200
_cell_length_b   3.84941800
_cell_length_c   12.19173927
_cell_angle_alpha   90.00000000
_cell_angle_beta   120.95317902
_cell_angle_gamma   90.00000000
_symmetry_Int_Tables_number   1
_chemical_formula_structural   LiCuF4
_chemical_formula_sum   'Li8 Cu8 F32'
_cell_volume   601.10680515
_cell_formula_units_Z   8
loop_
 _symmetry_equiv_pos_site_id
 _symmetry_equiv_pos_as_xyz
  1  'x, y, z'
loop_
 _atom_site_type_symbol
 _atom_site_label
 _atom_site_symmetry_multiplicity
 _atom_site_fract_x
 _atom_site_fract_y
 _atom_site_fract_z
 _atom_site_occupancy
  Li  Li0  1  0.30153600  0.50000000  0.83265600  1
  Li  Li1  1  0.84244500  0.50000000  0.65766800  1
  Li  Li2  1  0.15437600  0.50000000  0.33794700  1
  Li  Li3  1  0.69405200  0.50000000  0.16687700  1
  Li  Li4  1  0.80153600  0.00000000  0.83265600  1
  Li  Li5  1  0.34244500  0.00000000  0.65766800  1
  Li  Li6  1  0.65437600  0.00000000  0.33794700  1
  Li  Li7  1  0.19405200  0.00000000  0.16687700  1
  Cu  Cu8  1  0.96384200  0.00000000  0.13245600  1
  Cu  Cu9  1  0.86205500  0.00000000  0.36073600  1
  Cu  Cu10  1  0.13755400  0.00000000  0.63902600  1
  Cu  Cu11  1  0.03489700  0.00000000  0.86737700  1
  Cu  Cu12  1  0.46384200  0.50000000  0.13245600  1
  Cu  Cu13  1  0.36205500  0.50000000  0.36073600  1
  Cu  Cu14  1  0.63755400  0.50000000  0.63902600  1
  Cu  Cu15  1  0.53489700  0.50000000  0.86737700  1
  F  F16  1  0.92647000  0.00000000  0.26220000  1
  F  F17  1  0.89303100  0.00000000  0.73862900  1
  F  F18  1  0.80383300  0.00000000  0.46589200  1
  F  F19  1  0.71984400  0.00000000  0.21691600  1
  F  F20  1  0.82823500  0.00000000  0.00474400  1
  F  F21  1  0.97832900  0.50000000  0.14637500  1
  F  F22  1  0.15131600  0.50000000  0.65637900  1
  F  F23  1  0.84803700  0.50000000  0.34398900  1
  F  F24  1  0.02511900  0.50000000  0.85783900  1
  F  F25  1  0.17004700  0.00000000  0.99728100  1
  F  F26  1  0.28052800  0.00000000  0.78149900  1
  F  F27  1  0.19394400  0.00000000  0.53224200  1
  F  F28  1  0.49755100  0.50000000  0.99875200  1
  F  F29  1  0.10758000  0.00000000  0.25934100  1
  F  F30  1  0.99932500  0.00000000  0.50090400  1
  F  F31  1  0.07798300  0.00000000  0.74227500  1
  F  F32  1  0.42647000  0.50000000  0.26220000  1
  F  F33  1  0.39303100  0.50000000  0.73862900  1
  F  F34  1  0.30383300  0.50000000  0.46589200  1
  F  F35  1  0.21984400  0.50000000  0.21691600  1
  F  F36  1  0.32823500  0.50000000  0.00474400  1
  F  F37  1  0.47832900  0.00000000  0.14637500  1
  F  F38  1  0.65131600  0.00000000  0.65637900  1
  F  F39  1  0.34803700  0.00000000  0.34398900  1
  F  F40  1  0.52511900  0.00000000  0.85783900  1
  F  F41  1  0.67004700  0.50000000  0.99728100  1
  F  F42  1  0.78052800  0.50000000  0.78149900  1
  F  F43  1  0.69394400  0.50000000  0.53224200  1
  F  F44  1  0.99755100  0.00000000  0.99875200  1
  F  F45  1  0.60758000  0.50000000  0.25934100  1
  F  F46  1  0.49932500  0.50000000  0.50090400  1
  F  F47  1  0.57798300  0.50000000  0.74227500  1
