# generated using pymatgen
data_Li2Fe2Si3O10
_symmetry_space_group_name_H-M   'P 1'
_cell_length_a   6.85606600
_cell_length_b   17.03869800
_cell_length_c   18.39967000
_cell_angle_alpha   90.00000000
_cell_angle_beta   90.00000000
_cell_angle_gamma   90.00000000
_symmetry_Int_Tables_number   1
_chemical_formula_structural   Li2Fe2Si3O10
_chemical_formula_sum   'Li16 Fe16 Si24 O80'
_cell_volume   2149.42070989
_cell_formula_units_Z   8
loop_
 _symmetry_equiv_pos_site_id
 _symmetry_equiv_pos_as_xyz
  1  'x, y, z'
loop_
 _atom_site_type_symbol
 _atom_site_label
 _atom_site_symmetry_multiplicity
 _atom_site_fract_x
 _atom_site_fract_y
 _atom_site_fract_z
 _atom_site_occupancy
  Li  Li0  1  0.79238450  0.58751200  0.29956350  1
  Li  Li1  1  0.54238450  0.83751200  0.45043650  1
  Li  Li2  1  0.54238450  0.66248800  0.04956350  1
  Li  Li3  1  0.79238450  0.91248800  0.20043650  1
  Li  Li4  1  0.29238450  0.58751200  0.79956350  1
  Li  Li5  1  0.04238450  0.83751200  0.95043650  1
  Li  Li6  1  0.04238450  0.66248800  0.54956350  1
  Li  Li7  1  0.29238450  0.91248800  0.70043650  1
  Li  Li8  1  0.29238450  0.08751200  0.29956350  1
  Li  Li9  1  0.04238450  0.33751200  0.45043650  1
  Li  Li10  1  0.04238450  0.16248800  0.04956350  1
  Li  Li11  1  0.29238450  0.41248800  0.20043650  1
  Li  Li12  1  0.79238450  0.08751200  0.79956350  1
  Li  Li13  1  0.54238450  0.33751200  0.95043650  1
  Li  Li14  1  0.54238450  0.16248800  0.54956350  1
  Li  Li15  1  0.79238450  0.41248800  0.70043650  1
  Fe  Fe16  1  0.37974000  0.86455900  0.27176400  1
  Fe  Fe17  1  0.62974000  0.61455900  0.47823600  1
  Fe  Fe18  1  0.62974000  0.88544100  0.02176400  1
  Fe  Fe19  1  0.37974000  0.63544100  0.22823600  1
  Fe  Fe20  1  0.87974000  0.86455900  0.77176400  1
  Fe  Fe21  1  0.12974000  0.61455900  0.97823600  1
  Fe  Fe22  1  0.12974000  0.88544100  0.52176400  1
  Fe  Fe23  1  0.87974000  0.63544100  0.72823600  1
  Fe  Fe24  1  0.87974000  0.36455900  0.27176400  1
  Fe  Fe25  1  0.12974000  0.11455900  0.47823600  1
  Fe  Fe26  1  0.12974000  0.38544100  0.02176400  1
  Fe  Fe27  1  0.87974000  0.13544100  0.22823600  1
  Fe  Fe28  1  0.37974000  0.36455900  0.77176400  1
  Fe  Fe29  1  0.62974000  0.11455900  0.97823600  1
  Fe  Fe30  1  0.62974000  0.38544100  0.52176400  1
  Fe  Fe31  1  0.37974000  0.13544100  0.72823600  1
  Si  Si32  1  0.63778350  0.72812950  0.35352800  1
  Si  Si33  1  0.38778350  0.97812950  0.39647200  1
  Si  Si34  1  0.74991800  0.50000000  0.00000000  1
  Si  Si35  1  0.38778350  0.52187050  0.10352800  1
  Si  Si36  1  0.63778350  0.77187050  0.14647200  1
  Si  Si37  1  0.99991800  0.75000000  0.25000000  1
  Si  Si38  1  0.13778350  0.72812950  0.85352800  1
  Si  Si39  1  0.88778350  0.97812950  0.89647200  1
  Si  Si40  1  0.24991800  0.50000000  0.50000000  1
  Si  Si41  1  0.88778350  0.52187050  0.60352800  1
  Si  Si42  1  0.13778350  0.77187050  0.64647200  1
  Si  Si43  1  0.49991800  0.75000000  0.75000000  1
  Si  Si44  1  0.13778350  0.22812950  0.35352800  1
  Si  Si45  1  0.88778350  0.47812950  0.39647200  1
  Si  Si46  1  0.24991800  0.00000000  0.00000000  1
  Si  Si47  1  0.88778350  0.02187050  0.10352800  1
  Si  Si48  1  0.13778350  0.27187050  0.14647200  1
  Si  Si49  1  0.49991800  0.25000000  0.25000000  1
  Si  Si50  1  0.63778350  0.22812950  0.85352800  1
  Si  Si51  1  0.38778350  0.47812950  0.89647200  1
  Si  Si52  1  0.74991800  0.00000000  0.50000000  1
  Si  Si53  1  0.38778350  0.02187050  0.60352800  1
  Si  Si54  1  0.63778350  0.27187050  0.64647200  1
  Si  Si55  1  0.99991800  0.25000000  0.75000000  1
  O  O56  1  0.12412100  0.82843200  0.26756000  1
  O  O57  1  0.39112750  0.96997300  0.30721150  1
  O  O58  1  0.52978900  0.65399100  0.31308500  1
  O  O59  1  0.86160600  0.72489600  0.31999000  1
  O  O60  1  0.53894450  0.81391900  0.34210350  1
  O  O61  1  0.78894450  0.56391900  0.40789650  1
  O  O62  1  0.61160600  0.97489600  0.43001000  1
  O  O63  1  0.27978900  0.90399100  0.43691500  1
  O  O64  1  0.64112750  0.71997300  0.44278850  1
  O  O65  1  0.37412100  0.57843200  0.48244000  1
  O  O66  1  0.37412100  0.92156800  0.01756000  1
  O  O67  1  0.64112750  0.78002700  0.05721150  1
  O  O68  1  0.27978900  0.59600900  0.06308500  1
  O  O69  1  0.61160600  0.52510400  0.06999000  1
  O  O70  1  0.78894450  0.93608100  0.09210350  1
  O  O71  1  0.53894450  0.68608100  0.15789650  1
  O  O72  1  0.86160600  0.77510400  0.18001000  1
  O  O73  1  0.52978900  0.84600900  0.18691500  1
  O  O74  1  0.39112750  0.53002700  0.19278850  1
  O  O75  1  0.12412100  0.67156800  0.23244000  1
  O  O76  1  0.62412100  0.82843200  0.76756000  1
  O  O77  1  0.89112750  0.96997300  0.80721150  1
  O  O78  1  0.02978900  0.65399100  0.81308500  1
  O  O79  1  0.36160600  0.72489600  0.81999000  1
  O  O80  1  0.03894450  0.81391900  0.84210350  1
  O  O81  1  0.28894450  0.56391900  0.90789650  1
  O  O82  1  0.11160600  0.97489600  0.93001000  1
  O  O83  1  0.77978900  0.90399100  0.93691500  1
  O  O84  1  0.14112750  0.71997300  0.94278850  1
  O  O85  1  0.87412100  0.57843200  0.98244000  1
  O  O86  1  0.87412100  0.92156800  0.51756000  1
  O  O87  1  0.14112750  0.78002700  0.55721150  1
  O  O88  1  0.77978900  0.59600900  0.56308500  1
  O  O89  1  0.11160600  0.52510400  0.56999000  1
  O  O90  1  0.28894450  0.93608100  0.59210350  1
  O  O91  1  0.03894450  0.68608100  0.65789650  1
  O  O92  1  0.36160600  0.77510400  0.68001000  1
  O  O93  1  0.02978900  0.84600900  0.68691500  1
  O  O94  1  0.89112750  0.53002700  0.69278850  1
  O  O95  1  0.62412100  0.67156800  0.73244000  1
  O  O96  1  0.62412100  0.32843200  0.26756000  1
  O  O97  1  0.89112750  0.46997300  0.30721150  1
  O  O98  1  0.02978900  0.15399100  0.31308500  1
  O  O99  1  0.36160600  0.22489600  0.31999000  1
  O  O100  1  0.03894450  0.31391900  0.34210350  1
  O  O101  1  0.28894450  0.06391900  0.40789650  1
  O  O102  1  0.11160600  0.47489600  0.43001000  1
  O  O103  1  0.77978900  0.40399100  0.43691500  1
  O  O104  1  0.14112750  0.21997300  0.44278850  1
  O  O105  1  0.87412100  0.07843200  0.48244000  1
  O  O106  1  0.87412100  0.42156800  0.01756000  1
  O  O107  1  0.14112750  0.28002700  0.05721150  1
  O  O108  1  0.77978900  0.09600900  0.06308500  1
  O  O109  1  0.11160600  0.02510400  0.06999000  1
  O  O110  1  0.28894450  0.43608100  0.09210350  1
  O  O111  1  0.03894450  0.18608100  0.15789650  1
  O  O112  1  0.36160600  0.27510400  0.18001000  1
  O  O113  1  0.02978900  0.34600900  0.18691500  1
  O  O114  1  0.89112750  0.03002700  0.19278850  1
  O  O115  1  0.62412100  0.17156800  0.23244000  1
  O  O116  1  0.12412100  0.32843200  0.76756000  1
  O  O117  1  0.39112750  0.46997300  0.80721150  1
  O  O118  1  0.52978900  0.15399100  0.81308500  1
  O  O119  1  0.86160600  0.22489600  0.81999000  1
  O  O120  1  0.53894450  0.31391900  0.84210350  1
  O  O121  1  0.78894450  0.06391900  0.90789650  1
  O  O122  1  0.61160600  0.47489600  0.93001000  1
  O  O123  1  0.27978900  0.40399100  0.93691500  1
  O  O124  1  0.64112750  0.21997300  0.94278850  1
  O  O125  1  0.37412100  0.07843200  0.98244000  1
  O  O126  1  0.37412100  0.42156800  0.51756000  1
  O  O127  1  0.64112750  0.28002700  0.55721150  1
  O  O128  1  0.27978900  0.09600900  0.56308500  1
  O  O129  1  0.61160600  0.02510400  0.56999000  1
  O  O130  1  0.78894450  0.43608100  0.59210350  1
  O  O131  1  0.53894450  0.18608100  0.65789650  1
  O  O132  1  0.86160600  0.27510400  0.68001000  1
  O  O133  1  0.52978900  0.34600900  0.68691500  1
  O  O134  1  0.39112750  0.03002700  0.69278850  1
  O  O135  1  0.12412100  0.17156800  0.73244000  1
