# generated using pymatgen
data_Ag2Cl3
_symmetry_space_group_name_H-M   'P 1'
_cell_length_a   6.70290436
_cell_length_b   6.70290436
_cell_length_c   18.31888427
_cell_angle_alpha   90.00000000
_cell_angle_beta   90.00000000
_cell_angle_gamma   120.00000000
_symmetry_Int_Tables_number   1
_chemical_formula_structural   Ag2Cl3
_chemical_formula_sum   'Ag12 Cl18'
_cell_volume   712.78031418
_cell_formula_units_Z   6
loop_
 _symmetry_equiv_pos_site_id
 _symmetry_equiv_pos_as_xyz
  1  'x, y, z'
loop_
 _atom_site_type_symbol
 _atom_site_label
 _atom_site_symmetry_multiplicity
 _atom_site_fract_x
 _atom_site_fract_y
 _atom_site_fract_z
 _atom_site_occupancy
  Ag  Ag0  1  0.00000000  0.00000000  0.15700000  1
  Ag  Ag1  1  0.33333333  0.66666667  0.00966667  1
  Ag  Ag2  1  0.33333333  0.66666667  0.32366667  1
  Ag  Ag3  1  0.66666667  0.33333333  0.17633333  1
  Ag  Ag4  1  0.66666667  0.33333333  0.49033333  1
  Ag  Ag5  1  0.00000000  0.00000000  0.34300000  1
  Ag  Ag6  1  0.00000000  0.00000000  0.65700000  1
  Ag  Ag7  1  0.33333333  0.66666667  0.50966667  1
  Ag  Ag8  1  0.33333333  0.66666667  0.82366667  1
  Ag  Ag9  1  0.66666667  0.33333333  0.67633333  1
  Ag  Ag10  1  0.66666667  0.33333333  0.99033333  1
  Ag  Ag11  1  0.00000000  0.00000000  0.84300000  1
  Cl  Cl12  1  0.34903167  0.01569833  0.08333333  1
  Cl  Cl13  1  0.98430167  0.33333333  0.08333333  1
  Cl  Cl14  1  0.66666667  0.65096833  0.08333333  1
  Cl  Cl15  1  0.00000000  0.68236500  0.25000000  1
  Cl  Cl16  1  0.68236500  1.00000000  0.25000000  1
  Cl  Cl17  1  0.31763500  0.31763500  0.25000000  1
  Cl  Cl18  1  0.01569833  0.34903167  0.41666667  1
  Cl  Cl19  1  0.65096833  0.66666667  0.41666667  1
  Cl  Cl20  1  0.33333333  0.98430167  0.41666667  1
  Cl  Cl21  1  0.66666667  0.01569833  0.58333333  1
  Cl  Cl22  1  0.34903167  0.33333333  0.58333333  1
  Cl  Cl23  1  0.98430167  0.65096833  0.58333333  1
  Cl  Cl24  1  0.68236500  0.68236500  0.75000000  1
  Cl  Cl25  1  0.31763500  0.00000000  0.75000000  1
  Cl  Cl26  1  0.00000000  0.31763500  0.75000000  1
  Cl  Cl27  1  0.33333333  0.34903167  0.91666667  1
  Cl  Cl28  1  0.01569833  0.66666667  0.91666667  1
  Cl  Cl29  1  0.65096833  0.98430167  0.91666667  1
