# generated using pymatgen
data_Li4Co2OF7
_symmetry_space_group_name_H-M   'P 1'
_cell_length_a   10.38536554
_cell_length_b   5.88798134
_cell_length_c   5.97468045
_cell_angle_alpha   90.00000000
_cell_angle_beta   124.85541410
_cell_angle_gamma   90.00000000
_symmetry_Int_Tables_number   1
_chemical_formula_structural   Li4Co2OF7
_chemical_formula_sum   'Li8 Co4 O2 F14'
_cell_volume   299.80076934
_cell_formula_units_Z   2
loop_
 _symmetry_equiv_pos_site_id
 _symmetry_equiv_pos_as_xyz
  1  'x, y, z'
loop_
 _atom_site_type_symbol
 _atom_site_label
 _atom_site_symmetry_multiplicity
 _atom_site_fract_x
 _atom_site_fract_y
 _atom_site_fract_z
 _atom_site_occupancy
  Li  Li0  1  0.99806625  0.00000000  0.00472350  1
  Li  Li1  1  0.76020275  0.00000000  0.24989400  1
  Li  Li2  1  0.87536700  0.50000000  0.62982350  1
  Li  Li3  1  0.87195725  0.50000000  0.11606050  1
  Li  Li4  1  0.49806625  0.50000000  0.00472350  1
  Li  Li5  1  0.26020275  0.50000000  0.24989400  1
  Li  Li6  1  0.37536700  0.00000000  0.62982350  1
  Li  Li7  1  0.37195725  0.00000000  0.11606050  1
  Co  Co8  1  0.62515650  0.22527300  0.63758550  1
  Co  Co9  1  0.62515650  0.77472700  0.63758550  1
  Co  Co10  1  0.12515650  0.72527300  0.63758550  1
  Co  Co11  1  0.12515650  0.27472700  0.63758550  1
  O  O12  1  0.62068550  0.00000000  0.85250050  1
  O  O13  1  0.12068550  0.50000000  0.85250050  1
  F  F14  1  0.61860350  0.00000000  0.36542900  1
  F  F15  1  0.63019875  0.50000000  0.86741500  1
  F  F16  1  0.62755950  0.50000000  0.41694250  1
  F  F17  1  0.85974750  0.74021900  0.85456050  1
  F  F18  1  0.85974750  0.25978100  0.85456050  1
  F  F19  1  0.88953875  0.73333225  0.38151300  1
  F  F20  1  0.88953875  0.26666775  0.38151300  1
  F  F21  1  0.11860350  0.50000000  0.36542900  1
  F  F22  1  0.13019875  0.00000000  0.86741500  1
  F  F23  1  0.12755950  0.00000000  0.41694250  1
  F  F24  1  0.35974750  0.24021900  0.85456050  1
  F  F25  1  0.35974750  0.75978100  0.85456050  1
  F  F26  1  0.38953875  0.23333225  0.38151300  1
  F  F27  1  0.38953875  0.76666775  0.38151300  1
