# generated using pymatgen
data_LiNi(PO3)4
_symmetry_space_group_name_H-M   'P 1'
_cell_length_a   5.07551200
_cell_length_b   13.62571000
_cell_length_c   7.08718333
_cell_angle_alpha   90.00000000
_cell_angle_beta   97.54055221
_cell_angle_gamma   90.00000000
_symmetry_Int_Tables_number   1
_chemical_formula_structural   LiNi(PO3)4
_chemical_formula_sum   'Li2 Ni2 P8 O24'
_cell_volume   485.89301458
_cell_formula_units_Z   2
loop_
 _symmetry_equiv_pos_site_id
 _symmetry_equiv_pos_as_xyz
  1  'x, y, z'
loop_
 _atom_site_type_symbol
 _atom_site_label
 _atom_site_symmetry_multiplicity
 _atom_site_fract_x
 _atom_site_fract_y
 _atom_site_fract_z
 _atom_site_occupancy
  Li  Li0  1  0.59347200  0.99056900  0.13026600  1
  Li  Li1  1  0.40652800  0.49056900  0.86973400  1
  Ni  Ni2  1  0.51120300  0.76317300  0.50872600  1
  Ni  Ni3  1  0.48879700  0.26317300  0.49127400  1
  P  P4  1  0.02020700  0.90352800  0.54693500  1
  P  P5  1  0.00200800  0.62361200  0.46279600  1
  P  P6  1  0.14747400  0.32849500  0.10064200  1
  P  P7  1  0.22678600  0.67848100  0.11622600  1
  P  P8  1  0.77321400  0.17848100  0.88377400  1
  P  P9  1  0.85252600  0.82849500  0.89935800  1
  P  P10  1  0.99799200  0.12361200  0.53720400  1
  P  P11  1  0.97979300  0.40352800  0.45306500  1
  O  O12  1  0.04619200  0.73753700  0.95219100  1
  O  O13  1  0.02909500  0.89613100  0.77447100  1
  O  O14  1  0.99940200  0.13509800  0.76254900  1
  O  O15  1  0.19761000  0.38593500  0.93076400  1
  O  O16  1  0.10072100  0.51144000  0.50299900  1
  O  O17  1  0.18298600  0.33260000  0.55098600  1
  O  O18  1  0.21443200  0.68709500  0.57282000  1
  O  O19  1  0.29494700  0.89682200  0.49204700  1
  O  O20  1  0.27390900  0.13269300  0.48473500  1
  O  O21  1  0.39939600  0.75088400  0.23881400  1
  O  O22  1  0.39215800  0.28934700  0.22430000  1
  O  O23  1  0.35585900  0.59740800  0.02199800  1
  O  O24  1  0.64414100  0.09740800  0.97800200  1
  O  O25  1  0.60784200  0.78934700  0.77570000  1
  O  O26  1  0.60060400  0.25088400  0.76118600  1
  O  O27  1  0.72609100  0.63269300  0.51526500  1
  O  O28  1  0.70505300  0.39682200  0.50795300  1
  O  O29  1  0.78556800  0.18709500  0.42718000  1
  O  O30  1  0.81701400  0.83260000  0.44901400  1
  O  O31  1  0.89927900  0.01144000  0.49700100  1
  O  O32  1  0.80239000  0.88593500  0.06923600  1
  O  O33  1  0.00059800  0.63509800  0.23745100  1
  O  O34  1  0.97090500  0.39613100  0.22552900  1
  O  O35  1  0.95380800  0.23753700  0.04780900  1
