# generated using pymatgen
data_Li2Mn3(BO3)3
_symmetry_space_group_name_H-M   'P 1'
_cell_length_a   16.61083600
_cell_length_b   6.34777000
_cell_length_c   14.31392780
_cell_angle_alpha   90.00000000
_cell_angle_beta   90.65165776
_cell_angle_gamma   90.00000000
_symmetry_Int_Tables_number   1
_chemical_formula_structural   Li2Mn3(BO3)3
_chemical_formula_sum   'Li16 Mn24 B24 O72'
_cell_volume   1509.18821388
_cell_formula_units_Z   8
loop_
 _symmetry_equiv_pos_site_id
 _symmetry_equiv_pos_as_xyz
  1  'x, y, z'
loop_
 _atom_site_type_symbol
 _atom_site_label
 _atom_site_symmetry_multiplicity
 _atom_site_fract_x
 _atom_site_fract_y
 _atom_site_fract_z
 _atom_site_occupancy
  Li  Li0  1  0.66947400  0.00000000  0.85900500  1
  Li  Li1  1  0.68559800  0.00000000  0.14925700  1
  Li  Li2  1  0.64587100  0.50000000  0.48733000  1
  Li  Li3  1  0.66952400  0.50000000  0.85992400  1
  Li  Li4  1  0.92000100  0.00000000  0.36005700  1
  Li  Li5  1  0.89435500  0.50000000  0.99074900  1
  Li  Li6  1  0.91898200  0.50000000  0.35912600  1
  Li  Li7  1  0.93530200  0.50000000  0.64952700  1
  Li  Li8  1  0.16947400  0.50000000  0.85900500  1
  Li  Li9  1  0.18559800  0.50000000  0.14925700  1
  Li  Li10  1  0.14587100  0.00000000  0.48733000  1
  Li  Li11  1  0.16952400  0.00000000  0.85992400  1
  Li  Li12  1  0.42000100  0.50000000  0.36005700  1
  Li  Li13  1  0.39435500  0.00000000  0.99074900  1
  Li  Li14  1  0.41898200  0.00000000  0.35912600  1
  Li  Li15  1  0.43530200  0.00000000  0.64952700  1
  Mn  Mn16  1  0.59363550  0.24950550  0.67527800  1
  Mn  Mn17  1  0.59111900  0.25076400  0.31423100  1
  Mn  Mn18  1  0.84329050  0.75035950  0.17581900  1
  Mn  Mn19  1  0.84149450  0.75381750  0.81486300  1
  Mn  Mn20  1  0.81630100  0.75543500  0.51061800  1
  Mn  Mn21  1  0.56651650  0.25405850  0.01007800  1
  Mn  Mn22  1  0.56651650  0.74594150  0.01007800  1
  Mn  Mn23  1  0.81630100  0.24456500  0.51061800  1
  Mn  Mn24  1  0.84149450  0.24618250  0.81486300  1
  Mn  Mn25  1  0.84329050  0.24964050  0.17581900  1
  Mn  Mn26  1  0.59111900  0.74923600  0.31423100  1
  Mn  Mn27  1  0.59363550  0.75049450  0.67527800  1
  Mn  Mn28  1  0.09363550  0.74950550  0.67527800  1
  Mn  Mn29  1  0.09111900  0.75076400  0.31423100  1
  Mn  Mn30  1  0.34329050  0.25035950  0.17581900  1
  Mn  Mn31  1  0.34149450  0.25381750  0.81486300  1
  Mn  Mn32  1  0.31630100  0.25543500  0.51061800  1
  Mn  Mn33  1  0.06651650  0.75405850  0.01007800  1
  Mn  Mn34  1  0.06651650  0.24594150  0.01007800  1
  Mn  Mn35  1  0.31630100  0.74456500  0.51061800  1
  Mn  Mn36  1  0.34149450  0.74618250  0.81486300  1
  Mn  Mn37  1  0.34329050  0.74964050  0.17581900  1
  Mn  Mn38  1  0.09111900  0.24923600  0.31423100  1
  Mn  Mn39  1  0.09363550  0.25049450  0.67527800  1
  B  B40  1  0.74689200  0.00000000  0.67113600  1
  B  B41  1  0.50050800  0.00000000  0.83582200  1
  B  B42  1  0.50031000  0.00000000  0.16790000  1
  B  B43  1  0.99860500  0.74908700  0.49675200  1
  B  B44  1  0.74819500  0.24966200  0.99682800  1
  B  B45  1  0.75310000  0.00000000  0.33360900  1
  B  B46  1  0.99680400  0.00000000  0.16957500  1
  B  B47  1  0.50468400  0.50000000  0.83226700  1
  B  B48  1  0.74819500  0.75033800  0.99682800  1
  B  B49  1  0.99860500  0.25091300  0.49675200  1
  B  B50  1  0.75211700  0.50000000  0.33584900  1
  B  B51  1  0.75072400  0.50000000  0.66712000  1
  B  B52  1  0.24689200  0.50000000  0.67113600  1
  B  B53  1  0.00050800  0.50000000  0.83582200  1
  B  B54  1  0.00031000  0.50000000  0.16790000  1
  B  B55  1  0.49860500  0.24908700  0.49675200  1
  B  B56  1  0.24819500  0.74966200  0.99682800  1
  B  B57  1  0.25310000  0.50000000  0.33360900  1
  B  B58  1  0.49680400  0.50000000  0.16957500  1
  B  B59  1  0.00468400  0.00000000  0.83226700  1
  B  B60  1  0.24819500  0.25033800  0.99682800  1
  B  B61  1  0.49860500  0.75091300  0.49675200  1
  B  B62  1  0.25211700  0.00000000  0.33584900  1
  B  B63  1  0.25072400  0.00000000  0.66712000  1
  O  O64  1  0.74434400  0.76640900  0.09254800  1
  O  O65  1  0.51039100  0.00000000  0.26458000  1
  O  O66  1  0.50647900  0.00000000  0.93292200  1
  O  O67  1  0.56839700  0.00000000  0.11083700  1
  O  O68  1  0.56820300  0.00000000  0.78083200  1
  O  O69  1  0.66918700  0.00000000  0.63553200  1
  O  O70  1  0.67598200  0.00000000  0.29417700  1
  O  O71  1  0.82139800  0.72891600  0.95330100  1
  O  O72  1  0.99487050  0.73195950  0.59252500  1
  O  O73  1  0.74434400  0.23359100  0.09254800  1
  O  O74  1  0.67724750  0.24560550  0.94306300  1
  O  O75  1  0.92738050  0.74774650  0.44339500  1
  O  O76  1  0.57183950  0.26823850  0.45325700  1
  O  O77  1  0.76045400  0.00000000  0.76795200  1
  O  O78  1  0.81178500  0.00000000  0.61118600  1
  O  O79  1  0.81898100  0.00000000  0.27491900  1
  O  O80  1  0.56807500  0.50000000  0.76891200  1
  O  O81  1  0.76657100  0.00000000  0.42883100  1
  O  O82  1  0.91973400  0.00000000  0.13259200  1
  O  O83  1  0.92554100  0.00000000  0.80374000  1
  O  O84  1  0.50965200  0.50000000  0.26638500  1
  O  O85  1  0.67499500  0.50000000  0.62488700  1
  O  O86  1  0.52524200  0.50000000  0.92628900  1
  O  O87  1  0.56216600  0.50000000  0.11025900  1
  O  O88  1  0.67372100  0.50000000  0.30372200  1
  O  O89  1  0.57183950  0.73176150  0.45325700  1
  O  O90  1  0.92738050  0.25225350  0.44339500  1
  O  O91  1  0.67724750  0.75439450  0.94306300  1
  O  O92  1  0.99487050  0.26804050  0.59252500  1
  O  O93  1  0.82139800  0.27108400  0.95330100  1
  O  O94  1  0.76428300  0.50000000  0.43273900  1
  O  O95  1  0.81771100  0.50000000  0.27645100  1
  O  O96  1  0.81944900  0.50000000  0.61093800  1
  O  O97  1  0.92384000  0.50000000  0.12756400  1
  O  O98  1  0.75978100  0.50000000  0.76369200  1
  O  O99  1  0.92456900  0.50000000  0.79307600  1
  O  O100  1  0.24434400  0.26640900  0.09254800  1
  O  O101  1  0.01039100  0.50000000  0.26458000  1
  O  O102  1  0.00647900  0.50000000  0.93292200  1
  O  O103  1  0.06839700  0.50000000  0.11083700  1
  O  O104  1  0.06820300  0.50000000  0.78083200  1
  O  O105  1  0.16918700  0.50000000  0.63553200  1
  O  O106  1  0.17598200  0.50000000  0.29417700  1
  O  O107  1  0.32139800  0.22891600  0.95330100  1
  O  O108  1  0.49487050  0.23195950  0.59252500  1
  O  O109  1  0.24434400  0.73359100  0.09254800  1
  O  O110  1  0.17724750  0.74560550  0.94306300  1
  O  O111  1  0.42738050  0.24774650  0.44339500  1
  O  O112  1  0.07183950  0.76823850  0.45325700  1
  O  O113  1  0.26045400  0.50000000  0.76795200  1
  O  O114  1  0.31178500  0.50000000  0.61118600  1
  O  O115  1  0.31898100  0.50000000  0.27491900  1
  O  O116  1  0.06807500  0.00000000  0.76891200  1
  O  O117  1  0.26657100  0.50000000  0.42883100  1
  O  O118  1  0.41973400  0.50000000  0.13259200  1
  O  O119  1  0.42554100  0.50000000  0.80374000  1
  O  O120  1  0.00965200  0.00000000  0.26638500  1
  O  O121  1  0.17499500  0.00000000  0.62488700  1
  O  O122  1  0.02524200  0.00000000  0.92628900  1
  O  O123  1  0.06216600  0.00000000  0.11025900  1
  O  O124  1  0.17372100  0.00000000  0.30372200  1
  O  O125  1  0.07183950  0.23176150  0.45325700  1
  O  O126  1  0.42738050  0.75225350  0.44339500  1
  O  O127  1  0.17724750  0.25439450  0.94306300  1
  O  O128  1  0.49487050  0.76804050  0.59252500  1
  O  O129  1  0.32139800  0.77108400  0.95330100  1
  O  O130  1  0.26428300  0.00000000  0.43273900  1
  O  O131  1  0.31771100  0.00000000  0.27645100  1
  O  O132  1  0.31944900  0.00000000  0.61093800  1
  O  O133  1  0.42384000  0.00000000  0.12756400  1
  O  O134  1  0.25978100  0.00000000  0.76369200  1
  O  O135  1  0.42456900  0.00000000  0.79307600  1
