# generated using pymatgen
data_Mn3(OF2)2
_symmetry_space_group_name_H-M   'P 1'
_cell_length_a   6.82950395
_cell_length_b   20.65498598
_cell_length_c   3.13642500
_cell_angle_alpha   90.00000000
_cell_angle_beta   90.00000000
_cell_angle_gamma   90.00000000
_symmetry_Int_Tables_number   1
_chemical_formula_structural   Mn3(OF2)2
_chemical_formula_sum   'Mn12 O8 F16'
_cell_volume   442.43448680
_cell_formula_units_Z   4
loop_
 _symmetry_equiv_pos_site_id
 _symmetry_equiv_pos_as_xyz
  1  'x, y, z'
loop_
 _atom_site_type_symbol
 _atom_site_label
 _atom_site_symmetry_multiplicity
 _atom_site_fract_x
 _atom_site_fract_y
 _atom_site_fract_z
 _atom_site_occupancy
  Mn  Mn0  1  0.50000000  0.82413700  0.00000000  1
  Mn  Mn1  1  0.50000000  0.67094800  0.50000000  1
  Mn  Mn2  1  0.00000000  0.82905200  0.50000000  1
  Mn  Mn3  1  0.50000000  0.50000000  0.00000000  1
  Mn  Mn4  1  0.00000000  0.67586300  0.00000000  1
  Mn  Mn5  1  0.00000000  0.50000000  0.50000000  1
  Mn  Mn6  1  0.00000000  0.32413700  0.00000000  1
  Mn  Mn7  1  0.00000000  0.17094800  0.50000000  1
  Mn  Mn8  1  0.50000000  0.32905200  0.50000000  1
  Mn  Mn9  1  0.00000000  0.00000000  0.00000000  1
  Mn  Mn10  1  0.50000000  0.17586300  0.00000000  1
  Mn  Mn11  1  0.50000000  0.00000000  0.50000000  1
  O  O12  1  0.50000000  0.76525500  0.50000000  1
  O  O13  1  0.18964100  0.50000000  0.00000000  1
  O  O14  1  0.00000000  0.73474500  0.50000000  1
  O  O15  1  0.81035900  0.50000000  0.00000000  1
  O  O16  1  0.00000000  0.26525500  0.50000000  1
  O  O17  1  0.68964100  0.00000000  0.00000000  1
  O  O18  1  0.50000000  0.23474500  0.50000000  1
  O  O19  1  0.31035900  0.00000000  0.00000000  1
  F  F20  1  0.30425500  0.33481500  0.00000000  1
  F  F21  1  0.69574500  0.66518500  0.00000000  1
  F  F22  1  0.69574500  0.33481500  0.00000000  1
  F  F23  1  0.50000000  0.57040100  0.50000000  1
  F  F24  1  0.00000000  0.61116800  0.50000000  1
  F  F25  1  0.50000000  0.42959900  0.50000000  1
  F  F26  1  0.30425500  0.66518500  0.00000000  1
  F  F27  1  0.00000000  0.38883200  0.50000000  1
  F  F28  1  0.80425500  0.83481500  0.00000000  1
  F  F29  1  0.19574500  0.16518500  0.00000000  1
  F  F30  1  0.19574500  0.83481500  0.00000000  1
  F  F31  1  0.00000000  0.07040100  0.50000000  1
  F  F32  1  0.50000000  0.11116800  0.50000000  1
  F  F33  1  0.00000000  0.92959900  0.50000000  1
  F  F34  1  0.80425500  0.16518500  0.00000000  1
  F  F35  1  0.50000000  0.88883200  0.50000000  1
