# generated using pymatgen
data_LiMn2OF3
_symmetry_space_group_name_H-M   'P 1'
_cell_length_a   6.28430520
_cell_length_b   6.28430520
_cell_length_c   15.90281182
_cell_angle_alpha   90.00000000
_cell_angle_beta   90.00000000
_cell_angle_gamma   120.00000000
_symmetry_Int_Tables_number   1
_chemical_formula_structural   LiMn2OF3
_chemical_formula_sum   'Li6 Mn12 O6 F18'
_cell_volume   543.90003816
_cell_formula_units_Z   6
loop_
 _symmetry_equiv_pos_site_id
 _symmetry_equiv_pos_as_xyz
  1  'x, y, z'
loop_
 _atom_site_type_symbol
 _atom_site_label
 _atom_site_symmetry_multiplicity
 _atom_site_fract_x
 _atom_site_fract_y
 _atom_site_fract_z
 _atom_site_occupancy
  Li  Li0  1  0.00000000  0.00000000  0.64872025  1
  Li  Li1  1  0.66666667  0.33333333  0.68461308  1
  Li  Li2  1  0.66666667  0.33333333  0.98205358  1
  Li  Li3  1  0.33333333  0.66666667  0.01794642  1
  Li  Li4  1  0.33333333  0.66666667  0.31538692  1
  Li  Li5  1  0.00000000  0.00000000  0.35127975  1
  Mn  Mn6  1  0.33333333  0.66666667  0.66666667  1
  Mn  Mn7  1  0.16666667  0.83333333  0.83333333  1
  Mn  Mn8  1  0.66666667  0.83333333  0.83333333  1
  Mn  Mn9  1  0.16666667  0.33333333  0.83333333  1
  Mn  Mn10  1  1.00000000  1.00000000  0.00000000  1
  Mn  Mn11  1  0.83333333  0.16666667  0.16666667  1
  Mn  Mn12  1  0.33333333  0.16666667  0.16666667  1
  Mn  Mn13  1  0.83333333  0.66666667  0.16666667  1
  Mn  Mn14  1  0.66666667  0.33333333  0.33333333  1
  Mn  Mn15  1  0.50000000  0.50000000  0.50000000  1
  Mn  Mn16  1  0.00000000  0.50000000  0.50000000  1
  Mn  Mn17  1  0.50000000  0.00000000  0.50000000  1
  O  O18  1  0.00000000  0.00000000  0.77569458  1
  O  O19  1  0.33333333  0.66666667  0.89097208  1
  O  O20  1  0.66666667  0.33333333  0.10902792  1
  O  O21  1  0.00000000  0.00000000  0.22430542  1
  O  O22  1  0.33333333  0.66666667  0.44236125  1
  O  O23  1  0.66666667  0.33333333  0.55763875  1
  F  F24  1  0.49750275  0.99500550  0.74247975  1
  F  F25  1  0.83583058  0.16416942  0.92418692  1
  F  F26  1  0.00499450  0.50249725  0.74247975  1
  F  F27  1  0.83583058  0.67166117  0.92418692  1
  F  F28  1  0.32833883  0.16416942  0.92418692  1
  F  F29  1  0.49750275  0.50249725  0.74247975  1
  F  F30  1  0.16416942  0.32833883  0.07581308  1
  F  F31  1  0.50249725  0.49750275  0.25752025  1
  F  F32  1  0.67166117  0.83583058  0.07581308  1
  F  F33  1  0.50249725  0.00499450  0.25752025  1
  F  F34  1  0.99500550  0.49750275  0.25752025  1
  F  F35  1  0.16416942  0.83583058  0.07581308  1
  F  F36  1  0.83083608  0.66167217  0.40914642  1
  F  F37  1  0.16916392  0.83083608  0.59085358  1
  F  F38  1  0.33832783  0.16916392  0.40914642  1
  F  F39  1  0.16916392  0.33832783  0.59085358  1
  F  F40  1  0.66167217  0.83083608  0.59085358  1
  F  F41  1  0.83083608  0.16916392  0.40914642  1
