# generated using pymatgen
data_Li4VCr3O8
_symmetry_space_group_name_H-M   'P 1'
_cell_length_a   5.95021675
_cell_length_b   5.95021675
_cell_length_c   14.60434081
_cell_angle_alpha   90.00000000
_cell_angle_beta   90.00000000
_cell_angle_gamma   120.00000000
_symmetry_Int_Tables_number   1
_chemical_formula_structural   Li4VCr3O8
_chemical_formula_sum   'Li12 V3 Cr9 O24'
_cell_volume   447.79389017
_cell_formula_units_Z   3
loop_
 _symmetry_equiv_pos_site_id
 _symmetry_equiv_pos_as_xyz
  1  'x, y, z'
loop_
 _atom_site_type_symbol
 _atom_site_label
 _atom_site_symmetry_multiplicity
 _atom_site_fract_x
 _atom_site_fract_y
 _atom_site_fract_z
 _atom_site_occupancy
  Li  Li0  1  0.66666667  0.33333333  0.83333333  1
  Li  Li1  1  0.16666667  0.33333333  0.83333333  1
  Li  Li2  1  0.66666667  0.83333333  0.83333333  1
  Li  Li3  1  0.16666667  0.83333333  0.83333333  1
  Li  Li4  1  0.33333333  0.66666667  0.16666667  1
  Li  Li5  1  0.83333333  0.66666667  0.16666667  1
  Li  Li6  1  0.33333333  0.16666667  0.16666667  1
  Li  Li7  1  0.83333333  0.16666667  0.16666667  1
  Li  Li8  1  1.00000000  1.00000000  0.50000000  1
  Li  Li9  1  0.50000000  0.00000000  0.50000000  1
  Li  Li10  1  0.00000000  0.50000000  0.50000000  1
  Li  Li11  1  0.50000000  0.50000000  0.50000000  1
  V  V12  1  0.33333333  0.66666667  0.66666667  1
  V  V13  1  1.00000000  1.00000000  0.00000000  1
  V  V14  1  0.66666667  0.33333333  0.33333333  1
  Cr  Cr15  1  0.83333333  0.66666667  0.66666667  1
  Cr  Cr16  1  0.83333333  0.16666667  0.66666667  1
  Cr  Cr17  1  0.33333333  0.16666667  0.66666667  1
  Cr  Cr18  1  0.50000000  0.00000000  0.00000000  1
  Cr  Cr19  1  0.50000000  0.50000000  0.00000000  1
  Cr  Cr20  1  0.00000000  0.50000000  0.00000000  1
  Cr  Cr21  1  0.16666667  0.33333333  0.33333333  1
  Cr  Cr22  1  0.16666667  0.83333333  0.33333333  1
  Cr  Cr23  1  0.66666667  0.83333333  0.33333333  1
  O  O24  1  0.00000000  0.00000000  0.74028500  1
  O  O25  1  0.33333333  0.66666667  0.92638167  1
  O  O26  1  0.33617733  0.16808867  0.92335967  1
  O  O27  1  0.50142200  0.49857800  0.74330700  1
  O  O28  1  0.83191133  0.66382267  0.92335967  1
  O  O29  1  0.50142200  0.00284400  0.74330700  1
  O  O30  1  0.83191133  0.16808867  0.92335967  1
  O  O31  1  0.99715600  0.49857800  0.74330700  1
  O  O32  1  0.66666667  0.33333333  0.07361833  1
  O  O33  1  1.00000000  0.00000000  0.25971500  1
  O  O34  1  0.00284400  0.50142200  0.25669300  1
  O  O35  1  0.16808867  0.83191133  0.07664033  1
  O  O36  1  0.49857800  0.99715600  0.25669300  1
  O  O37  1  0.16808867  0.33617733  0.07664033  1
  O  O38  1  0.49857800  0.50142200  0.25669300  1
  O  O39  1  0.66382267  0.83191133  0.07664033  1
  O  O40  1  0.33333333  0.66666667  0.40695167  1
  O  O41  1  0.66666667  0.33333333  0.59304833  1
  O  O42  1  0.66951067  0.83475533  0.59002633  1
  O  O43  1  0.83475533  0.16524467  0.40997367  1
  O  O44  1  0.16524467  0.33048933  0.59002633  1
  O  O45  1  0.83475533  0.66951067  0.40997367  1
  O  O46  1  0.16524467  0.83475533  0.59002633  1
  O  O47  1  0.33048933  0.16524467  0.40997367  1
