# generated using pymatgen
data_Fe3S4
_symmetry_space_group_name_H-M   'P 1'
_cell_length_a   6.65589418
_cell_length_b   6.65589418
_cell_length_c   16.85975347
_cell_angle_alpha   90.00000000
_cell_angle_beta   90.00000000
_cell_angle_gamma   120.00000000
_symmetry_Int_Tables_number   1
_chemical_formula_structural   Fe3S4
_chemical_formula_sum   'Fe18 S24'
_cell_volume   646.83672417
_cell_formula_units_Z   6
loop_
 _symmetry_equiv_pos_site_id
 _symmetry_equiv_pos_as_xyz
  1  'x, y, z'
loop_
 _atom_site_type_symbol
 _atom_site_label
 _atom_site_symmetry_multiplicity
 _atom_site_fract_x
 _atom_site_fract_y
 _atom_site_fract_z
 _atom_site_occupancy
  Fe  Fe0  1  0.50000000  0.00000000  0.00000000  1
  Fe  Fe1  1  0.00000000  0.50000000  0.00000000  1
  Fe  Fe2  1  0.50000000  0.50000000  0.00000000  1
  Fe  Fe3  1  0.66666667  0.33333333  0.83333333  1
  Fe  Fe4  1  0.33333333  0.66666667  0.79351167  1
  Fe  Fe5  1  0.00000000  0.00000000  0.87315500  1
  Fe  Fe6  1  0.16666667  0.33333333  0.33333333  1
  Fe  Fe7  1  0.66666667  0.83333333  0.33333333  1
  Fe  Fe8  1  0.16666667  0.83333333  0.33333333  1
  Fe  Fe9  1  0.33333333  0.66666667  0.16666667  1
  Fe  Fe10  1  0.00000000  0.00000000  0.12684500  1
  Fe  Fe11  1  0.66666667  0.33333333  0.20648833  1
  Fe  Fe12  1  0.83333333  0.66666667  0.66666667  1
  Fe  Fe13  1  0.33333333  0.16666667  0.66666667  1
  Fe  Fe14  1  0.83333333  0.16666667  0.66666667  1
  Fe  Fe15  1  1.00000000  1.00000000  0.50000000  1
  Fe  Fe16  1  0.66666667  0.33333333  0.46017833  1
  Fe  Fe17  1  0.33333333  0.66666667  0.53982167  1
  S  S18  1  0.51026033  0.48973967  0.74953367  1
  S  S19  1  0.82307300  0.64614600  0.91713300  1
  S  S20  1  0.33333333  0.66666667  0.92074333  1
  S  S21  1  0.00000000  0.00000000  0.74592333  1
  S  S22  1  0.97947933  0.48973967  0.74953367  1
  S  S23  1  0.82307300  0.17692700  0.91713300  1
  S  S24  1  0.51026033  0.02052067  0.74953367  1
  S  S25  1  0.35385400  0.17692700  0.91713300  1
  S  S26  1  0.17692700  0.82307300  0.08286700  1
  S  S27  1  0.48973967  0.97947933  0.25046633  1
  S  S28  1  0.00000000  0.00000000  0.25407667  1
  S  S29  1  0.66666667  0.33333333  0.07925667  1
  S  S30  1  0.64614600  0.82307300  0.08286700  1
  S  S31  1  0.48973967  0.51026033  0.25046633  1
  S  S32  1  0.17692700  0.35385400  0.08286700  1
  S  S33  1  0.02052067  0.51026033  0.25046633  1
  S  S34  1  0.84359367  0.15640633  0.41620033  1
  S  S35  1  0.15640633  0.31281267  0.58379967  1
  S  S36  1  0.66666667  0.33333333  0.58741000  1
  S  S37  1  0.33333333  0.66666667  0.41259000  1
  S  S38  1  0.31281267  0.15640633  0.41620033  1
  S  S39  1  0.15640633  0.84359367  0.58379967  1
  S  S40  1  0.84359367  0.68718733  0.41620033  1
  S  S41  1  0.68718733  0.84359367  0.58379967  1
