# generated using pymatgen
data_ZnFe2(PO4)3
_symmetry_space_group_name_H-M   'P 1'
_cell_length_a   4.89371600
_cell_length_b   5.95641600
_cell_length_c   29.86220092
_cell_angle_alpha   90.00000000
_cell_angle_beta   90.01424231
_cell_angle_gamma   90.00000000
_symmetry_Int_Tables_number   1
_chemical_formula_structural   ZnFe2(PO4)3
_chemical_formula_sum   'Zn4 Fe8 P12 O48'
_cell_volume   870.45351511
_cell_formula_units_Z   4
loop_
 _symmetry_equiv_pos_site_id
 _symmetry_equiv_pos_as_xyz
  1  'x, y, z'
loop_
 _atom_site_type_symbol
 _atom_site_label
 _atom_site_symmetry_multiplicity
 _atom_site_fract_x
 _atom_site_fract_y
 _atom_site_fract_z
 _atom_site_occupancy
  Zn  Zn0  1  0.45726700  0.00000000  0.07509000  1
  Zn  Zn1  1  0.95716300  0.50000000  0.09149200  1
  Zn  Zn2  1  0.45231900  0.00000000  0.40824400  1
  Zn  Zn3  1  0.45258400  0.00000000  0.74138700  1
  Fe  Fe4  1  0.03671800  0.00000000  0.24212400  1
  Fe  Fe5  1  0.53568800  0.50000000  0.25821200  1
  Fe  Fe6  1  0.96587500  0.50000000  0.42473800  1
  Fe  Fe7  1  0.03277900  0.00000000  0.57488200  1
  Fe  Fe8  1  0.53414500  0.50000000  0.59091900  1
  Fe  Fe9  1  0.96620500  0.50000000  0.75795800  1
  Fe  Fe10  1  0.03464200  0.00000000  0.90806200  1
  Fe  Fe11  1  0.53633500  0.50000000  0.92417200  1
  P  P12  1  0.41642800  0.50000000  0.03114800  1
  P  P13  1  0.91639600  0.00000000  0.13548000  1
  P  P14  1  0.08319000  0.50000000  0.19921600  1
  P  P15  1  0.58264000  0.00000000  0.30102200  1
  P  P16  1  0.41218800  0.50000000  0.36587800  1
  P  P17  1  0.92552600  0.00000000  0.46791400  1
  P  P18  1  0.08233000  0.50000000  0.53191000  1
  P  P19  1  0.58210600  0.00000000  0.63409300  1
  P  P20  1  0.41143300  0.50000000  0.69907500  1
  P  P21  1  0.92533400  0.00000000  0.80106300  1
  P  P22  1  0.08187500  0.50000000  0.86525600  1
  P  P23  1  0.58277400  0.00000000  0.96705200  1
  O  O24  1  0.66018200  0.00000000  0.01679900  1
  O  O25  1  0.72841600  0.50000000  0.03632400  1
  O  O26  1  0.27248600  0.70226200  0.05491100  1
  O  O27  1  0.27248600  0.29773800  0.05491100  1
  O  O28  1  0.77209500  0.20242200  0.11179500  1
  O  O29  1  0.77209500  0.79757800  0.11179500  1
  O  O30  1  0.22928500  0.00000000  0.13044500  1
  O  O31  1  0.16228800  0.50000000  0.14961900  1
  O  O32  1  0.84684900  0.00000000  0.18577000  1
  O  O33  1  0.77429200  0.50000000  0.20620800  1
  O  O34  1  0.22598500  0.70047900  0.22499000  1
  O  O35  1  0.22598500  0.29952100  0.22499000  1
  O  O36  1  0.72626600  0.20120300  0.27559900  1
  O  O37  1  0.72626600  0.79879700  0.27559900  1
  O  O38  1  0.27349800  0.00000000  0.29365900  1
  O  O39  1  0.35288900  0.50000000  0.31544400  1
  O  O40  1  0.65358700  0.00000000  0.35071300  1
  O  O41  1  0.71982900  0.50000000  0.37373000  1
  O  O42  1  0.25980200  0.69862800  0.39024900  1
  O  O43  1  0.25980200  0.30137200  0.39024900  1
  O  O44  1  0.78716300  0.79526100  0.44372400  1
  O  O45  1  0.78716300  0.20473900  0.44372400  1
  O  O46  1  0.23690300  0.00000000  0.46421700  1
  O  O47  1  0.15685200  0.50000000  0.48226600  1
  O  O48  1  0.84714300  0.00000000  0.51801100  1
  O  O49  1  0.77282000  0.50000000  0.53889400  1
  O  O50  1  0.22637200  0.70121600  0.55718800  1
  O  O51  1  0.22637200  0.29878400  0.55718800  1
  O  O52  1  0.72622900  0.20128800  0.60857600  1
  O  O53  1  0.72622900  0.79871200  0.60857600  1
  O  O54  1  0.27314000  0.00000000  0.62629900  1
  O  O55  1  0.35267300  0.50000000  0.64858500  1
  O  O56  1  0.65325100  0.00000000  0.68374600  1
  O  O57  1  0.71946700  0.50000000  0.70691800  1
  O  O58  1  0.25982800  0.69840100  0.72342700  1
  O  O59  1  0.25982800  0.30159900  0.72342700  1
  O  O60  1  0.78737000  0.79570000  0.77704000  1
  O  O61  1  0.78737000  0.20430000  0.77704000  1
  O  O62  1  0.23671500  0.00000000  0.79747700  1
  O  O63  1  0.15508200  0.50000000  0.81568100  1
  O  O64  1  0.84727900  0.00000000  0.85123700  1
  O  O65  1  0.77253400  0.50000000  0.87229400  1
  O  O66  1  0.22570900  0.70141900  0.89043200  1
  O  O67  1  0.22570900  0.29858100  0.89043200  1
  O  O68  1  0.72560700  0.20080100  0.94143400  1
  O  O69  1  0.72560700  0.79919900  0.94143400  1
  O  O70  1  0.27409500  0.00000000  0.95973900  1
  O  O71  1  0.34716700  0.50000000  0.98080700  1
