# generated using pymatgen
data_Li2VO2F
_symmetry_space_group_name_H-M   'P 1'
_cell_length_a   5.94554600
_cell_length_b   8.47027000
_cell_length_c   9.49577210
_cell_angle_alpha   90.00000000
_cell_angle_beta   107.86975469
_cell_angle_gamma   90.00000000
_symmetry_Int_Tables_number   1
_chemical_formula_structural   Li2VO2F
_chemical_formula_sum   'Li16 V8 O16 F8'
_cell_volume   455.14014225
_cell_formula_units_Z   8
loop_
 _symmetry_equiv_pos_site_id
 _symmetry_equiv_pos_as_xyz
  1  'x, y, z'
loop_
 _atom_site_type_symbol
 _atom_site_label
 _atom_site_symmetry_multiplicity
 _atom_site_fract_x
 _atom_site_fract_y
 _atom_site_fract_z
 _atom_site_occupancy
  Li  Li0  1  0.23130450  0.87284450  0.72140100  1
  Li  Li1  1  0.23130450  0.12715550  0.22140100  1
  Li  Li2  1  0.42562550  0.63642350  0.60912400  1
  Li  Li3  1  0.57933250  0.62660650  0.91068400  1
  Li  Li4  1  0.42562550  0.36357650  0.10912400  1
  Li  Li5  1  0.57933250  0.37339350  0.41068400  1
  Li  Li6  1  0.75001550  0.88198650  0.73884200  1
  Li  Li7  1  0.75001550  0.11801350  0.23884200  1
  Li  Li8  1  0.73130450  0.37284450  0.72140100  1
  Li  Li9  1  0.73130450  0.62715550  0.22140100  1
  Li  Li10  1  0.92562550  0.13642350  0.60912400  1
  Li  Li11  1  0.07933250  0.12660650  0.91068400  1
  Li  Li12  1  0.92562550  0.86357650  0.10912400  1
  Li  Li13  1  0.07933250  0.87339350  0.41068400  1
  Li  Li14  1  0.25001550  0.38198650  0.73884200  1
  Li  Li15  1  0.25001550  0.61801350  0.23884200  1
  V  V16  1  0.58836550  0.12488250  0.91896300  1
  V  V17  1  0.41664850  0.12404750  0.59858000  1
  V  V18  1  0.58836550  0.87511750  0.41896300  1
  V  V19  1  0.41664850  0.87595250  0.09858000  1
  V  V20  1  0.08836550  0.62488250  0.91896300  1
  V  V21  1  0.91664850  0.62404750  0.59858000  1
  V  V22  1  0.08836550  0.37511750  0.41896300  1
  V  V23  1  0.91664850  0.37595250  0.09858000  1
  O  O24  1  0.26816950  0.11997750  0.75318700  1
  O  O25  1  0.40378200  0.35730200  0.57191000  1
  O  O26  1  0.42494900  0.88864500  0.57339600  1
  O  O27  1  0.26816950  0.88002250  0.25318700  1
  O  O28  1  0.73953150  0.12942650  0.75587500  1
  O  O29  1  0.40378200  0.64269800  0.07191000  1
  O  O30  1  0.42494900  0.11135500  0.07339600  1
  O  O31  1  0.73953150  0.87057350  0.25587500  1
  O  O32  1  0.76816950  0.61997750  0.75318700  1
  O  O33  1  0.90378200  0.85730200  0.57191000  1
  O  O34  1  0.92494900  0.38864500  0.57339600  1
  O  O35  1  0.76816950  0.38002250  0.25318700  1
  O  O36  1  0.23953150  0.62942650  0.75587500  1
  O  O37  1  0.90378200  0.14269800  0.07191000  1
  O  O38  1  0.92494900  0.61135500  0.07339600  1
  O  O39  1  0.23953150  0.37057350  0.25587500  1
  F  F40  1  0.59241550  0.87693250  0.92630800  1
  F  F41  1  0.57986150  0.37383450  0.92172900  1
  F  F42  1  0.59241550  0.12306750  0.42630800  1
  F  F43  1  0.57986150  0.62616550  0.42172900  1
  F  F44  1  0.09241550  0.37693250  0.92630800  1
  F  F45  1  0.07986150  0.87383450  0.92172900  1
  F  F46  1  0.09241550  0.62306750  0.42630800  1
  F  F47  1  0.07986150  0.12616550  0.42172900  1
