# generated using pymatgen
data_Mn3(OF2)2
_symmetry_space_group_name_H-M   'P 1'
_cell_length_a   5.80148300
_cell_length_b   4.76196600
_cell_length_c   8.00042372
_cell_angle_alpha   90.00000000
_cell_angle_beta   93.56915367
_cell_angle_gamma   90.00000000
_symmetry_Int_Tables_number   1
_chemical_formula_structural   Mn3(OF2)2
_chemical_formula_sum   'Mn6 O4 F8'
_cell_volume   220.59472450
_cell_formula_units_Z   2
loop_
 _symmetry_equiv_pos_site_id
 _symmetry_equiv_pos_as_xyz
  1  'x, y, z'
loop_
 _atom_site_type_symbol
 _atom_site_label
 _atom_site_symmetry_multiplicity
 _atom_site_fract_x
 _atom_site_fract_y
 _atom_site_fract_z
 _atom_site_occupancy
  Mn  Mn0  1  0.57141200  0.00181900  0.35164900  1
  Mn  Mn1  1  0.22857800  0.00992000  0.99891600  1
  Mn  Mn2  1  0.90491400  0.97365900  0.67393300  1
  Mn  Mn3  1  0.77142200  0.50992000  0.00108400  1
  Mn  Mn4  1  0.42858800  0.50181900  0.64835100  1
  Mn  Mn5  1  0.09508600  0.47365900  0.32606700  1
  O  O6  1  0.04351100  0.31151800  0.10550500  1
  O  O7  1  0.38631500  0.30666000  0.43105600  1
  O  O8  1  0.95648900  0.81151800  0.89449500  1
  O  O9  1  0.61368500  0.80666000  0.56894400  1
  F  F10  1  0.71403700  0.30573100  0.77146300  1
  F  F11  1  0.88568600  0.19043400  0.45410700  1
  F  F12  1  0.54578400  0.19490000  0.10434100  1
  F  F13  1  0.21333100  0.20535800  0.75126200  1
  F  F14  1  0.28596300  0.80573100  0.22853700  1
  F  F15  1  0.45421600  0.69490000  0.89565900  1
  F  F16  1  0.11431400  0.69043400  0.54589300  1
  F  F17  1  0.78666900  0.70535800  0.24873800  1
