# generated using pymatgen
data_CoO2
_symmetry_space_group_name_H-M   'P 1'
_cell_length_a   2.82105798
_cell_length_b   4.92915723
_cell_length_c   10.61611108
_cell_angle_alpha   90.00000000
_cell_angle_beta   90.00000000
_cell_angle_gamma   90.00000000
_symmetry_Int_Tables_number   1
_chemical_formula_structural   CoO2
_chemical_formula_sum   'Co4 O8'
_cell_volume   147.62167786
_cell_formula_units_Z   4
loop_
 _symmetry_equiv_pos_site_id
 _symmetry_equiv_pos_as_xyz
  1  'x, y, z'
loop_
 _atom_site_type_symbol
 _atom_site_label
 _atom_site_symmetry_multiplicity
 _atom_site_fract_x
 _atom_site_fract_y
 _atom_site_fract_z
 _atom_site_occupancy
  Co  Co0  1  0.25000000  0.30223225  0.74799850  1
  Co  Co1  1  0.75000000  0.30223225  0.25200150  1
  Co  Co2  1  0.75000000  0.80223225  0.74799850  1
  Co  Co3  1  0.25000000  0.80223225  0.25200150  1
  O  O4  1  0.75000000  0.46977800  0.65959600  1
  O  O5  1  0.25000000  0.46977800  0.34040400  1
  O  O6  1  0.25000000  0.63461025  0.83644550  1
  O  O7  1  0.75000000  0.63461025  0.16355450  1
  O  O8  1  0.25000000  0.96977800  0.65959600  1
  O  O9  1  0.75000000  0.96977800  0.34040400  1
  O  O10  1  0.75000000  0.13461025  0.83644550  1
  O  O11  1  0.25000000  0.13461025  0.16355450  1
