# generated using pymatgen
data_Dy(Bi3O5)4
_symmetry_space_group_name_H-M   'P 1'
_cell_length_a   10.34467800
_cell_length_b   10.34467800
_cell_length_c   10.34467800
_cell_angle_alpha   90.00000000
_cell_angle_beta   90.00000000
_cell_angle_gamma   90.00000000
_symmetry_Int_Tables_number   1
_chemical_formula_structural   Dy(Bi3O5)4
_chemical_formula_sum   'Dy2 Bi24 O40'
_cell_volume   1107.00843646
_cell_formula_units_Z   2
loop_
 _symmetry_equiv_pos_site_id
 _symmetry_equiv_pos_as_xyz
  1  'x, y, z'
loop_
 _atom_site_type_symbol
 _atom_site_label
 _atom_site_symmetry_multiplicity
 _atom_site_fract_x
 _atom_site_fract_y
 _atom_site_fract_z
 _atom_site_occupancy
  Dy  Dy0  1  0.00000000  0.00000000  0.00000000  1
  Dy  Dy1  1  0.50000000  0.50000000  0.50000000  1
  Bi  Bi2  1  0.81780900  0.32533700  0.50524700  1
  Bi  Bi3  1  0.99475300  0.31780900  0.17466300  1
  Bi  Bi4  1  0.00524700  0.68219100  0.17466300  1
  Bi  Bi5  1  0.17466300  0.99475300  0.31780900  1
  Bi  Bi6  1  0.17466300  0.00524700  0.68219100  1
  Bi  Bi7  1  0.18219100  0.32533700  0.49475300  1
  Bi  Bi8  1  0.31780900  0.17466300  0.99475300  1
  Bi  Bi9  1  0.32533700  0.49475300  0.18219100  1
  Bi  Bi10  1  0.32533700  0.50524700  0.81780900  1
  Bi  Bi11  1  0.49475300  0.18219100  0.32533700  1
  Bi  Bi12  1  0.50524700  0.81780900  0.32533700  1
  Bi  Bi13  1  0.68219100  0.17466300  0.00524700  1
  Bi  Bi14  1  0.31780900  0.82533700  0.00524700  1
  Bi  Bi15  1  0.49475300  0.81780900  0.67466300  1
  Bi  Bi16  1  0.50524700  0.18219100  0.67466300  1
  Bi  Bi17  1  0.67466300  0.49475300  0.81780900  1
  Bi  Bi18  1  0.67466300  0.50524700  0.18219100  1
  Bi  Bi19  1  0.68219100  0.82533700  0.99475300  1
  Bi  Bi20  1  0.81780900  0.67466300  0.49475300  1
  Bi  Bi21  1  0.82533700  0.99475300  0.68219100  1
  Bi  Bi22  1  0.82533700  0.00524700  0.31780900  1
  Bi  Bi23  1  0.99475300  0.68219100  0.82533700  1
  Bi  Bi24  1  0.00524700  0.31780900  0.82533700  1
  Bi  Bi25  1  0.18219100  0.67466300  0.50524700  1
  O  O26  1  0.83043050  0.16956950  0.16956950  1
  O  O27  1  0.86787900  0.49031100  0.24352800  1
  O  O28  1  0.99031100  0.25647200  0.63212100  1
  O  O29  1  0.00968900  0.25647200  0.36787900  1
  O  O30  1  0.12297000  0.12297000  0.12297000  1
  O  O31  1  0.62297000  0.37703000  0.37703000  1
  O  O32  1  0.13212100  0.50968900  0.24352800  1
  O  O33  1  0.16956950  0.83043050  0.16956950  1
  O  O34  1  0.25647200  0.36787900  0.00968900  1
  O  O35  1  0.25647200  0.63212100  0.99031100  1
  O  O36  1  0.24352800  0.86787900  0.49031100  1
  O  O37  1  0.24352800  0.13212100  0.50968900  1
  O  O38  1  0.33043050  0.33043050  0.33043050  1
  O  O39  1  0.36787900  0.00968900  0.25647200  1
  O  O40  1  0.37703000  0.37703000  0.62297000  1
  O  O41  1  0.37703000  0.62297000  0.37703000  1
  O  O42  1  0.49031100  0.24352800  0.86787900  1
  O  O43  1  0.50968900  0.24352800  0.13212100  1
  O  O44  1  0.63212100  0.99031100  0.25647200  1
  O  O45  1  0.16956950  0.16956950  0.83043050  1
  O  O46  1  0.33043050  0.66956950  0.66956950  1
  O  O47  1  0.36787900  0.99031100  0.74352800  1
  O  O48  1  0.49031100  0.75647200  0.13212100  1
  O  O49  1  0.50968900  0.75647200  0.86787900  1
  O  O50  1  0.62297000  0.62297000  0.62297000  1
  O  O51  1  0.12297000  0.87703000  0.87703000  1
  O  O52  1  0.63212100  0.00968900  0.74352800  1
  O  O53  1  0.66956950  0.33043050  0.66956950  1
  O  O54  1  0.75647200  0.86787900  0.50968900  1
  O  O55  1  0.75647200  0.13212100  0.49031100  1
  O  O56  1  0.74352800  0.36787900  0.99031100  1
  O  O57  1  0.74352800  0.63212100  0.00968900  1
  O  O58  1  0.83043050  0.83043050  0.83043050  1
  O  O59  1  0.86787900  0.50968900  0.75647200  1
  O  O60  1  0.87703000  0.87703000  0.12297000  1
  O  O61  1  0.87703000  0.12297000  0.87703000  1
  O  O62  1  0.99031100  0.74352800  0.36787900  1
  O  O63  1  0.00968900  0.74352800  0.63212100  1
  O  O64  1  0.13212100  0.49031100  0.75647200  1
  O  O65  1  0.66956950  0.66956950  0.33043050  1
