# generated using pymatgen
data_Fe4O5F3
_symmetry_space_group_name_H-M   'P 1'
_cell_length_a   9.41462600
_cell_length_b   6.12586800
_cell_length_c   9.40071518
_cell_angle_alpha   90.00000000
_cell_angle_beta   91.79445951
_cell_angle_gamma   90.00000000
_symmetry_Int_Tables_number   1
_chemical_formula_structural   Fe4O5F3
_chemical_formula_sum   'Fe16 O20 F12'
_cell_volume   541.89927238
_cell_formula_units_Z   4
loop_
 _symmetry_equiv_pos_site_id
 _symmetry_equiv_pos_as_xyz
  1  'x, y, z'
loop_
 _atom_site_type_symbol
 _atom_site_label
 _atom_site_symmetry_multiplicity
 _atom_site_fract_x
 _atom_site_fract_y
 _atom_site_fract_z
 _atom_site_occupancy
  Fe  Fe0  1  0.03285800  0.00000000  0.74490900  1
  Fe  Fe1  1  0.96714200  0.00000000  0.25509100  1
  Fe  Fe2  1  0.75000000  0.25000000  0.50000000  1
  Fe  Fe3  1  0.75000000  0.75000000  0.50000000  1
  Fe  Fe4  1  0.75000000  0.25000000  0.00000000  1
  Fe  Fe5  1  0.75000000  0.75000000  0.00000000  1
  Fe  Fe6  1  0.48552200  0.00000000  0.26928200  1
  Fe  Fe7  1  0.51447800  0.00000000  0.73071800  1
  Fe  Fe8  1  0.53285800  0.50000000  0.74490900  1
  Fe  Fe9  1  0.46714200  0.50000000  0.25509100  1
  Fe  Fe10  1  0.25000000  0.75000000  0.50000000  1
  Fe  Fe11  1  0.25000000  0.25000000  0.50000000  1
  Fe  Fe12  1  0.25000000  0.75000000  0.00000000  1
  Fe  Fe13  1  0.25000000  0.25000000  0.00000000  1
  Fe  Fe14  1  0.98552200  0.50000000  0.26928200  1
  Fe  Fe15  1  0.01447800  0.50000000  0.73071800  1
  O  O16  1  0.83824400  0.00000000  0.09337000  1
  O  O17  1  0.65763200  0.00000000  0.89911400  1
  O  O18  1  0.65272500  0.00000000  0.40636900  1
  O  O19  1  0.60740050  0.25069950  0.64725500  1
  O  O20  1  0.60740050  0.74930050  0.64725500  1
  O  O21  1  0.39259950  0.25069950  0.35274500  1
  O  O22  1  0.39259950  0.74930050  0.35274500  1
  O  O23  1  0.34727500  0.00000000  0.59363100  1
  O  O24  1  0.34236800  0.00000000  0.10088600  1
  O  O25  1  0.16175600  0.00000000  0.90663000  1
  O  O26  1  0.33824400  0.50000000  0.09337000  1
  O  O27  1  0.15763200  0.50000000  0.89911400  1
  O  O28  1  0.15272500  0.50000000  0.40636900  1
  O  O29  1  0.10740050  0.75069950  0.64725500  1
  O  O30  1  0.10740050  0.24930050  0.64725500  1
  O  O31  1  0.89259950  0.75069950  0.35274500  1
  O  O32  1  0.89259950  0.24930050  0.35274500  1
  O  O33  1  0.84727500  0.50000000  0.59363100  1
  O  O34  1  0.84236800  0.50000000  0.10088600  1
  O  O35  1  0.66175600  0.50000000  0.90663000  1
  F  F36  1  0.85712000  0.00000000  0.60566100  1
  F  F37  1  0.58651450  0.74826350  0.15675800  1
  F  F38  1  0.58651450  0.25173650  0.15675800  1
  F  F39  1  0.41348550  0.25173650  0.84324200  1
  F  F40  1  0.41348550  0.74826350  0.84324200  1
  F  F41  1  0.14288000  0.00000000  0.39433900  1
  F  F42  1  0.35712000  0.50000000  0.60566100  1
  F  F43  1  0.08651450  0.24826350  0.15675800  1
  F  F44  1  0.08651450  0.75173650  0.15675800  1
  F  F45  1  0.91348550  0.75173650  0.84324200  1
  F  F46  1  0.91348550  0.24826350  0.84324200  1
  F  F47  1  0.64288000  0.50000000  0.39433900  1
