# generated using pymatgen
data_RbMnP3HO10
_symmetry_space_group_name_H-M   'P 1'
_cell_length_a   12.39522025
_cell_length_b   8.75369707
_cell_length_c   8.91845908
_cell_angle_alpha   90.00000000
_cell_angle_beta   107.12218652
_cell_angle_gamma   90.00000000
_symmetry_Int_Tables_number   1
_chemical_formula_structural   RbMnP3HO10
_chemical_formula_sum   'Rb4 Mn4 P12 H4 O40'
_cell_volume   924.79966926
_cell_formula_units_Z   4
loop_
 _symmetry_equiv_pos_site_id
 _symmetry_equiv_pos_as_xyz
  1  'x, y, z'
loop_
 _atom_site_type_symbol
 _atom_site_label
 _atom_site_symmetry_multiplicity
 _atom_site_fract_x
 _atom_site_fract_y
 _atom_site_fract_z
 _atom_site_occupancy
  Rb  Rb0  1  0.23305650  0.13803350  0.75057250  1
  Rb  Rb1  1  0.76694350  0.13803350  0.24942750  1
  Rb  Rb2  1  0.73305650  0.63803350  0.75057250  1
  Rb  Rb3  1  0.26694350  0.63803350  0.24942750  1
  Mn  Mn4  1  0.50000000  0.29967050  0.50000000  1
  Mn  Mn5  1  0.50000000  0.78946250  0.00000000  1
  Mn  Mn6  1  0.00000000  0.79967050  0.50000000  1
  Mn  Mn7  1  0.00000000  0.28946250  0.00000000  1
  P  P8  1  0.73332050  0.19706850  0.79292050  1
  P  P9  1  0.26667950  0.19706850  0.20707950  1
  P  P10  1  0.92352850  0.00883750  0.76418550  1
  P  P11  1  0.07647150  0.00883750  0.23581450  1
  P  P12  1  0.52875050  0.01466650  0.73056050  1
  P  P13  1  0.47124950  0.01466650  0.26943950  1
  P  P14  1  0.23332050  0.69706850  0.79292050  1
  P  P15  1  0.76667950  0.69706850  0.20707950  1
  P  P16  1  0.42352850  0.50883750  0.76418550  1
  P  P17  1  0.57647150  0.50883750  0.23581450  1
  P  P18  1  0.02875050  0.51466650  0.73056050  1
  P  P19  1  0.97124950  0.51466650  0.26943950  1
  H  H20  1  0.50000000  0.88500250  0.50000000  1
  H  H21  1  0.50000000  0.37672150  0.00000000  1
  H  H22  1  0.00000000  0.38500250  0.50000000  1
  H  H23  1  0.00000000  0.87672150  0.00000000  1
  O  O24  1  0.42313850  0.37774950  0.87814550  1
  O  O25  1  0.57686150  0.37774950  0.12185450  1
  O  O26  1  0.94378300  0.96285900  0.60999050  1
  O  O27  1  0.05621700  0.96285900  0.39000950  1
  O  O28  1  0.50422400  0.63882500  0.84083950  1
  O  O29  1  0.49577600  0.63882500  0.15916050  1
  O  O30  1  0.79634600  0.07886600  0.70666950  1
  O  O31  1  0.20365400  0.07886600  0.29333050  1
  O  O32  1  0.31278700  0.75866900  0.94185850  1
  O  O33  1  0.68721300  0.75866900  0.05814150  1
  O  O34  1  0.66855850  0.30802650  0.67062150  1
  O  O35  1  0.33144150  0.30802650  0.32937850  1
  O  O36  1  0.64513600  0.08706600  0.84454950  1
  O  O37  1  0.35486400  0.08706600  0.15545050  1
  O  O38  1  0.45706700  0.14307600  0.63083050  1
  O  O39  1  0.54293300  0.14307600  0.36916950  1
  O  O40  1  0.46667100  0.95387200  0.84281350  1
  O  O41  1  0.53332900  0.95387200  0.15718650  1
  O  O42  1  0.56373550  0.89136050  0.63204150  1
  O  O43  1  0.43626450  0.89136050  0.36795850  1
  O  O44  1  0.92313850  0.87774950  0.87814550  1
  O  O45  1  0.07686150  0.87774950  0.12185450  1
  O  O46  1  0.44378300  0.46285900  0.60999050  1
  O  O47  1  0.55621700  0.46285900  0.39000950  1
  O  O48  1  0.00422400  0.13882500  0.84083950  1
  O  O49  1  0.99577600  0.13882500  0.15916050  1
  O  O50  1  0.29634600  0.57886600  0.70666950  1
  O  O51  1  0.70365400  0.57886600  0.29333050  1
  O  O52  1  0.81278700  0.25866900  0.94185850  1
  O  O53  1  0.18721300  0.25866900  0.05814150  1
  O  O54  1  0.16855850  0.80802650  0.67062150  1
  O  O55  1  0.83144150  0.80802650  0.32937850  1
  O  O56  1  0.14513600  0.58706600  0.84454950  1
  O  O57  1  0.85486400  0.58706600  0.15545050  1
  O  O58  1  0.95706700  0.64307600  0.63083050  1
  O  O59  1  0.04293300  0.64307600  0.36916950  1
  O  O60  1  0.96667100  0.45387200  0.84281350  1
  O  O61  1  0.03332900  0.45387200  0.15718650  1
  O  O62  1  0.06373550  0.39136050  0.63204150  1
  O  O63  1  0.93626450  0.39136050  0.36795850  1
