# generated using pymatgen
data_LiVCrP2(O4F)2
_symmetry_space_group_name_H-M   'P 1'
_cell_length_a   5.15433922
_cell_length_b   5.35311632
_cell_length_c   7.33573115
_cell_angle_alpha   109.60879737
_cell_angle_beta   106.04230022
_cell_angle_gamma   97.73254665
_symmetry_Int_Tables_number   1
_chemical_formula_structural   LiVCrP2(O4F)2
_chemical_formula_sum   'Li1 V1 Cr1 P2 O8 F2'
_cell_volume   177.37356403
_cell_formula_units_Z   1
loop_
 _symmetry_equiv_pos_site_id
 _symmetry_equiv_pos_as_xyz
  1  'x, y, z'
loop_
 _atom_site_type_symbol
 _atom_site_label
 _atom_site_symmetry_multiplicity
 _atom_site_fract_x
 _atom_site_fract_y
 _atom_site_fract_z
 _atom_site_occupancy
  Li  Li0  1  0.74604950  0.38813750  0.18024550  1
  V  V1  1  0.00325300  0.00268700  0.99396900  1
  Cr  Cr2  1  0.00192700  0.99828200  0.50254950  1
  P  P3  1  0.67778000  0.36132300  0.75605000  1
  P  P4  1  0.31807750  0.64311850  0.24369350  1
  O  O5  1  0.35528150  0.22110950  0.90727550  1
  O  O6  1  0.75512700  0.22625200  0.59732200  1
  O  O7  1  0.69467250  0.66047450  0.66451450  1
  O  O8  1  0.11592400  0.66973200  0.12531550  1
  O  O9  1  0.84429100  0.30938600  0.90202300  1
  O  O10  1  0.31622700  0.34243200  0.33608300  1
  O  O11  1  0.26191900  0.78916000  0.39537600  1
  O  O12  1  0.63869000  0.76655000  0.08634150  1
  F  F13  1  0.88295250  0.06490050  0.25997800  1
  F  F14  1  0.11695250  0.94098050  0.73820700  1
