# generated using pymatgen
data_Fe2O3F
_symmetry_space_group_name_H-M   'P 1'
_cell_length_a   6.38667800
_cell_length_b   6.87885000
_cell_length_c   15.00823500
_cell_angle_alpha   90.00000000
_cell_angle_beta   90.00000000
_cell_angle_gamma   90.00000000
_symmetry_Int_Tables_number   1
_chemical_formula_structural   Fe2O3F
_chemical_formula_sum   'Fe20 O30 F10'
_cell_volume   659.35678766
_cell_formula_units_Z   10
loop_
 _symmetry_equiv_pos_site_id
 _symmetry_equiv_pos_as_xyz
  1  'x, y, z'
loop_
 _atom_site_type_symbol
 _atom_site_label
 _atom_site_symmetry_multiplicity
 _atom_site_fract_x
 _atom_site_fract_y
 _atom_site_fract_z
 _atom_site_occupancy
  Fe  Fe0  1  0.50000000  0.49780500  0.19990100  1
  Fe  Fe1  1  0.50000000  0.49967900  0.39993100  1
  Fe  Fe2  1  0.50000000  0.49967900  0.60006900  1
  Fe  Fe3  1  0.50000000  0.49780500  0.80009900  1
  Fe  Fe4  1  0.50000000  0.48728200  0.00000000  1
  Fe  Fe5  1  0.50000000  0.96578400  0.30013100  1
  Fe  Fe6  1  0.50000000  0.96578400  0.69986900  1
  Fe  Fe7  1  0.50000000  0.03259900  0.50000000  1
  Fe  Fe8  1  0.50000000  0.02708800  0.89966100  1
  Fe  Fe9  1  0.50000000  0.02708800  0.10033900  1
  Fe  Fe10  1  0.00000000  0.99780500  0.19990100  1
  Fe  Fe11  1  0.00000000  0.99967900  0.39993100  1
  Fe  Fe12  1  0.00000000  0.99967900  0.60006900  1
  Fe  Fe13  1  0.00000000  0.99780500  0.80009900  1
  Fe  Fe14  1  0.00000000  0.98728200  0.00000000  1
  Fe  Fe15  1  0.00000000  0.46578400  0.30013100  1
  Fe  Fe16  1  0.00000000  0.46578400  0.69986900  1
  Fe  Fe17  1  0.00000000  0.53259900  0.50000000  1
  Fe  Fe18  1  0.00000000  0.52708800  0.89966100  1
  Fe  Fe19  1  0.00000000  0.52708800  0.10033900  1
  O  O20  1  0.50000000  0.32187900  0.50000000  1
  O  O21  1  0.50000000  0.31702800  0.89744100  1
  O  O22  1  0.50000000  0.31702800  0.10255900  1
  O  O23  1  0.30680900  0.99554500  0.19960500  1
  O  O24  1  0.30707850  0.99978650  0.40012500  1
  O  O25  1  0.30707850  0.99978650  0.59987500  1
  O  O26  1  0.30680900  0.99554500  0.80039500  1
  O  O27  1  0.30712200  0.00985600  0.00000000  1
  O  O28  1  0.69319100  0.99554500  0.19960500  1
  O  O29  1  0.69292150  0.99978650  0.40012500  1
  O  O30  1  0.69292150  0.99978650  0.59987500  1
  O  O31  1  0.69319100  0.99554500  0.80039500  1
  O  O32  1  0.69287800  0.00985600  0.00000000  1
  O  O33  1  0.50000000  0.67568000  0.29918200  1
  O  O34  1  0.50000000  0.67568000  0.70081800  1
  O  O35  1  0.00000000  0.82187900  0.50000000  1
  O  O36  1  0.00000000  0.81702800  0.89744100  1
  O  O37  1  0.00000000  0.81702800  0.10255900  1
  O  O38  1  0.80680900  0.49554500  0.19960500  1
  O  O39  1  0.80707850  0.49978650  0.40012500  1
  O  O40  1  0.80707850  0.49978650  0.59987500  1
  O  O41  1  0.80680900  0.49554500  0.80039500  1
  O  O42  1  0.80712200  0.50985600  0.00000000  1
  O  O43  1  0.19319100  0.49554500  0.19960500  1
  O  O44  1  0.19292150  0.49978650  0.40012500  1
  O  O45  1  0.19292150  0.49978650  0.59987500  1
  O  O46  1  0.19319100  0.49554500  0.80039500  1
  O  O47  1  0.19287800  0.50985600  0.00000000  1
  O  O48  1  0.00000000  0.17568000  0.29918200  1
  O  O49  1  0.00000000  0.17568000  0.70081800  1
  F  F50  1  0.50000000  0.29693100  0.30025900  1
  F  F51  1  0.50000000  0.29693100  0.69974100  1
  F  F52  1  0.50000000  0.70122900  0.50000000  1
  F  F53  1  0.50000000  0.69799000  0.09835200  1
  F  F54  1  0.50000000  0.69799000  0.90164800  1
  F  F55  1  0.00000000  0.79693100  0.30025900  1
  F  F56  1  0.00000000  0.79693100  0.69974100  1
  F  F57  1  0.00000000  0.20122900  0.50000000  1
  F  F58  1  0.00000000  0.19799000  0.09835200  1
  F  F59  1  0.00000000  0.19799000  0.90164800  1
