# generated using pymatgen
data_In15SnO24
_symmetry_space_group_name_H-M   'P 1'
_cell_length_a   14.58016223
_cell_length_b   14.58016223
_cell_length_c   8.96736545
_cell_angle_alpha   90.00000000
_cell_angle_beta   90.00000000
_cell_angle_gamma   120.00000000
_symmetry_Int_Tables_number   1
_chemical_formula_structural   In15SnO24
_chemical_formula_sum   'In45 Sn3 O72'
_cell_volume   1650.89789462
_cell_formula_units_Z   3
loop_
 _symmetry_equiv_pos_site_id
 _symmetry_equiv_pos_as_xyz
  1  'x, y, z'
loop_
 _atom_site_type_symbol
 _atom_site_label
 _atom_site_symmetry_multiplicity
 _atom_site_fract_x
 _atom_site_fract_y
 _atom_site_fract_z
 _atom_site_occupancy
  In  In0  1  0.10588900  0.67855500  0.64370800  1
  In  In1  1  0.82287733  0.92860367  0.64359267  1
  In  In2  1  0.67855500  0.57266600  0.35629200  1
  In  In3  1  0.42733400  0.10588900  0.35629200  1
  In  In4  1  0.92860367  0.10572633  0.35640733  1
  In  In5  1  0.16666667  0.83333333  0.33333333  1
  In  In6  1  0.89427367  0.82287733  0.35640733  1
  In  In7  1  0.16666667  0.33333333  0.33333333  1
  In  In8  1  0.10572633  0.17712267  0.64359267  1
  In  In9  1  0.66666667  0.83333333  0.33333333  1
  In  In10  1  0.07139633  0.89427367  0.64359267  1
  In  In11  1  0.57266600  0.89411100  0.64370800  1
  In  In12  1  0.17712267  0.07139633  0.35640733  1
  In  In13  1  0.32144500  0.42733400  0.64370800  1
  In  In14  1  0.89411100  0.32144500  0.35629200  1
  In  In15  1  0.77255567  0.01188833  0.97704133  1
  In  In16  1  0.48954400  0.26193700  0.97692600  1
  In  In17  1  0.34522167  0.90599933  0.68962533  1
  In  In18  1  0.09400067  0.43922233  0.68962533  1
  In  In19  1  0.59527033  0.43905967  0.68974067  1
  In  In20  1  0.83333333  0.16666667  0.66666667  1
  In  In21  1  0.56094033  0.15621067  0.68974067  1
  In  In22  1  0.83333333  0.66666667  0.66666667  1
  In  In23  1  0.77239300  0.51045600  0.97692600  1
  In  In24  1  0.33333333  0.16666667  0.66666667  1
  In  In25  1  0.73806300  0.22760700  0.97692600  1
  In  In26  1  0.23933267  0.22744433  0.97704133  1
  In  In27  1  0.84378933  0.40472967  0.68974067  1
  In  In28  1  0.98811167  0.76066733  0.97704133  1
  In  In29  1  0.56077767  0.65477833  0.68962533  1
  In  In30  1  0.43922233  0.34522167  0.31037467  1
  In  In31  1  0.15621067  0.59527033  0.31025933  1
  In  In32  1  0.01188833  0.23933267  0.02295867  1
  In  In33  1  0.76066733  0.77255567  0.02295867  1
  In  In34  1  0.26193700  0.77239300  0.02307400  1
  In  In35  1  0.50000000  0.50000000  0.00000000  1
  In  In36  1  0.22760700  0.48954400  0.02307400  1
  In  In37  1  0.50000000  0.00000000  0.00000000  1
  In  In38  1  0.43905967  0.84378933  0.31025933  1
  In  In39  1  0.00000000  0.50000000  0.00000000  1
  In  In40  1  0.40472967  0.56094033  0.31025933  1
  In  In41  1  0.90599933  0.56077767  0.31037467  1
  In  In42  1  0.51045600  0.73806300  0.02307400  1
  In  In43  1  0.65477833  0.09400067  0.31037467  1
  In  In44  1  0.22744433  0.98811167  0.02295867  1
  Sn  Sn45  1  0.00000000  0.00000000  0.00000000  1
  Sn  Sn46  1  0.66666667  0.33333333  0.33333333  1
  Sn  Sn47  1  0.33333333  0.66666667  0.66666667  1
  O  O48  1  0.92334467  0.07031033  0.11615833  1
  O  O49  1  0.83549833  0.93656967  0.39204967  1
  O  O50  1  0.19417433  0.85029767  0.58013467  1
  O  O51  1  0.14696567  0.07665533  0.11615833  1
  O  O52  1  0.39642867  0.06200933  0.59649933  1
  O  O53  1  0.10107133  0.16450167  0.39204967  1
  O  O54  1  0.85029767  0.65612333  0.41986533  1
  O  O55  1  0.06200933  0.66558067  0.40350067  1
  O  O56  1  0.93656967  0.10107133  0.60795033  1
  O  O57  1  0.92968967  0.85303433  0.11615833  1
  O  O58  1  0.34387667  0.19417433  0.41986533  1
  O  O59  1  0.66558067  0.60357133  0.59649933  1
  O  O60  1  0.33441933  0.39642867  0.40350067  1
  O  O61  1  0.06343033  0.89892867  0.39204967  1
  O  O62  1  0.65612333  0.80582567  0.58013467  1
  O  O63  1  0.07031033  0.14696567  0.88384167  1
  O  O64  1  0.14970233  0.34387667  0.58013467  1
  O  O65  1  0.93799067  0.33441933  0.59649933  1
  O  O66  1  0.60357133  0.93799067  0.40350067  1
  O  O67  1  0.89892867  0.83549833  0.60795033  1
  O  O68  1  0.80582567  0.14970233  0.41986533  1
  O  O69  1  0.85303433  0.92334467  0.88384167  1
  O  O70  1  0.16450167  0.06343033  0.60795033  1
  O  O71  1  0.07665533  0.92968967  0.88384167  1
  O  O72  1  0.59001133  0.40364367  0.44949167  1
  O  O73  1  0.50216500  0.26990300  0.72538300  1
  O  O74  1  0.86084100  0.18363100  0.91346800  1
  O  O75  1  0.81363233  0.40998867  0.44949167  1
  O  O76  1  0.06309533  0.39534267  0.92983267  1
  O  O77  1  0.76773800  0.49783500  0.72538300  1
  O  O78  1  0.51696433  0.98945667  0.75319867  1
  O  O79  1  0.72867600  0.99891400  0.73683400  1
  O  O80  1  0.60323633  0.43440467  0.94128367  1
  O  O81  1  0.59635633  0.18636767  0.44949167  1
  O  O82  1  0.01054333  0.52750767  0.75319867  1
  O  O83  1  0.33224733  0.93690467  0.92983267  1
  O  O84  1  0.00108600  0.72976200  0.73683400  1
  O  O85  1  0.73009700  0.23226200  0.72538300  1
  O  O86  1  0.32279000  0.13915900  0.91346800  1
  O  O87  1  0.73697700  0.48029900  0.21717500  1
  O  O88  1  0.81636900  0.67721000  0.91346800  1
  O  O89  1  0.60465733  0.66775267  0.92983267  1
  O  O90  1  0.27023800  0.27132400  0.73683400  1
  O  O91  1  0.56559533  0.16883167  0.94128367  1
  O  O92  1  0.47249233  0.48303567  0.75319867  1
  O  O93  1  0.51970100  0.25667800  0.21717500  1
  O  O94  1  0.83116833  0.39676367  0.94128367  1
  O  O95  1  0.74332200  0.26302300  0.21717500  1
  O  O96  1  0.25667800  0.73697700  0.78282500  1
  O  O97  1  0.16883167  0.60323633  0.05871633  1
  O  O98  1  0.52750767  0.51696433  0.24680133  1
  O  O99  1  0.48029900  0.74332200  0.78282500  1
  O  O100  1  0.72976200  0.72867600  0.26316600  1
  O  O101  1  0.43440467  0.83116833  0.05871633  1
  O  O102  1  0.18363100  0.32279000  0.08653200  1
  O  O103  1  0.39534267  0.33224733  0.07016733  1
  O  O104  1  0.26990300  0.76773800  0.27461700  1
  O  O105  1  0.26302300  0.51970100  0.78282500  1
  O  O106  1  0.67721000  0.86084100  0.08653200  1
  O  O107  1  0.99891400  0.27023800  0.26316600  1
  O  O108  1  0.66775267  0.06309533  0.07016733  1
  O  O109  1  0.39676367  0.56559533  0.05871633  1
  O  O110  1  0.98945667  0.47249233  0.24680133  1
  O  O111  1  0.40364367  0.81363233  0.55050833  1
  O  O112  1  0.48303567  0.01054333  0.24680133  1
  O  O113  1  0.27132400  0.00108600  0.26316600  1
  O  O114  1  0.93690467  0.60465733  0.07016733  1
  O  O115  1  0.23226200  0.50216500  0.27461700  1
  O  O116  1  0.13915900  0.81636900  0.08653200  1
  O  O117  1  0.18636767  0.59001133  0.55050833  1
  O  O118  1  0.49783500  0.73009700  0.27461700  1
  O  O119  1  0.40998867  0.59635633  0.55050833  1
