# generated using pymatgen
data_Li3Mn2(PO4)3
_symmetry_space_group_name_H-M   'P 1'
_cell_length_a   14.71401600
_cell_length_b   8.75938800
_cell_length_c   8.71180552
_cell_angle_alpha   90.00000000
_cell_angle_beta   123.37051705
_cell_angle_gamma   90.00000000
_symmetry_Int_Tables_number   1
_chemical_formula_structural   Li3Mn2(PO4)3
_chemical_formula_sum   'Li12 Mn8 P12 O48'
_cell_volume   937.70832845
_cell_formula_units_Z   4
loop_
 _symmetry_equiv_pos_site_id
 _symmetry_equiv_pos_as_xyz
  1  'x, y, z'
loop_
 _atom_site_type_symbol
 _atom_site_label
 _atom_site_symmetry_multiplicity
 _atom_site_fract_x
 _atom_site_fract_y
 _atom_site_fract_z
 _atom_site_occupancy
  Li  Li0  1  0.25122550  0.26283450  0.27680100  1
  Li  Li1  1  0.00000000  0.15464200  0.00000000  1
  Li  Li2  1  0.74877450  0.26283450  0.72319900  1
  Li  Li3  1  0.00000000  0.83274900  0.50000000  1
  Li  Li4  1  0.19822950  0.45897050  0.89691200  1
  Li  Li5  1  0.80177050  0.45897050  0.10308800  1
  Li  Li6  1  0.75122550  0.76283450  0.27680100  1
  Li  Li7  1  0.50000000  0.65464200  0.00000000  1
  Li  Li8  1  0.24877450  0.76283450  0.72319900  1
  Li  Li9  1  0.50000000  0.33274900  0.50000000  1
  Li  Li10  1  0.69822950  0.95897050  0.89691200  1
  Li  Li11  1  0.30177050  0.95897050  0.10308800  1
  Mn  Mn12  1  0.10664900  0.25004600  0.39259300  1
  Mn  Mn13  1  0.89335100  0.25004600  0.60740700  1
  Mn  Mn14  1  0.10329500  0.75375500  0.89825500  1
  Mn  Mn15  1  0.89670500  0.75375500  0.10174500  1
  Mn  Mn16  1  0.60664900  0.75004600  0.39259300  1
  Mn  Mn17  1  0.39335100  0.75004600  0.60740700  1
  Mn  Mn18  1  0.60329500  0.25375500  0.89825500  1
  Mn  Mn19  1  0.39670500  0.25375500  0.10174500  1
  P  P20  1  0.64864450  0.40244650  0.30466400  1
  P  P21  1  0.35135550  0.40244650  0.69533600  1
  P  P22  1  0.00000000  0.45507800  0.00000000  1
  P  P23  1  0.00000000  0.53367600  0.50000000  1
  P  P24  1  0.64713400  0.60423000  0.79523500  1
  P  P25  1  0.35286600  0.60423000  0.20476500  1
  P  P26  1  0.14864450  0.90244650  0.30466400  1
  P  P27  1  0.85135550  0.90244650  0.69533600  1
  P  P28  1  0.50000000  0.95507800  0.00000000  1
  P  P29  1  0.50000000  0.03367600  0.50000000  1
  P  P30  1  0.14713400  0.10423000  0.79523500  1
  P  P31  1  0.85286600  0.10423000  0.20476500  1
  O  O32  1  0.35465900  0.64037700  0.37680700  1
  O  O33  1  0.93738850  0.43571450  0.55826500  1
  O  O34  1  0.65230350  0.58250050  0.30470500  1
  O  O35  1  0.04744200  0.16056300  0.79091800  1
  O  O36  1  0.73467750  0.33498150  0.49170100  1
  O  O37  1  0.03810600  0.84470800  0.27068900  1
  O  O38  1  0.26532250  0.33498150  0.50829900  1
  O  O39  1  0.34769650  0.58250050  0.69529500  1
  O  O40  1  0.91384150  0.34772350  0.84688800  1
  O  O41  1  0.06261150  0.43571450  0.44173500  1
  O  O42  1  0.91250150  0.63889550  0.34392500  1
  O  O43  1  0.64534100  0.64037700  0.62319300  1
  O  O44  1  0.33735500  0.36554400  0.85327000  1
  O  O45  1  0.08615850  0.34772350  0.15311200  1
  O  O46  1  0.93660250  0.55223950  0.05963200  1
  O  O47  1  0.08749850  0.63889550  0.65607500  1
  O  O48  1  0.66443200  0.42546500  0.82140500  1
  O  O49  1  0.74422750  0.67543250  0.98026700  1
  O  O50  1  0.95255800  0.16056300  0.20908200  1
  O  O51  1  0.25577250  0.67543250  0.01973300  1
  O  O52  1  0.96189400  0.84470800  0.72931100  1
  O  O53  1  0.33556800  0.42546500  0.17859500  1
  O  O54  1  0.06339750  0.55223950  0.94036800  1
  O  O55  1  0.66264500  0.36554400  0.14673000  1
  O  O56  1  0.85465900  0.14037700  0.37680700  1
  O  O57  1  0.43738850  0.93571450  0.55826500  1
  O  O58  1  0.15230350  0.08250050  0.30470500  1
  O  O59  1  0.54744200  0.66056300  0.79091800  1
  O  O60  1  0.23467750  0.83498150  0.49170100  1
  O  O61  1  0.53810600  0.34470800  0.27068900  1
  O  O62  1  0.76532250  0.83498150  0.50829900  1
  O  O63  1  0.84769650  0.08250050  0.69529500  1
  O  O64  1  0.41384150  0.84772350  0.84688800  1
  O  O65  1  0.56261150  0.93571450  0.44173500  1
  O  O66  1  0.41250150  0.13889550  0.34392500  1
  O  O67  1  0.14534100  0.14037700  0.62319300  1
  O  O68  1  0.83735500  0.86554400  0.85327000  1
  O  O69  1  0.58615850  0.84772350  0.15311200  1
  O  O70  1  0.43660250  0.05223950  0.05963200  1
  O  O71  1  0.58749850  0.13889550  0.65607500  1
  O  O72  1  0.16443200  0.92546500  0.82140500  1
  O  O73  1  0.24422750  0.17543250  0.98026700  1
  O  O74  1  0.45255800  0.66056300  0.20908200  1
  O  O75  1  0.75577250  0.17543250  0.01973300  1
  O  O76  1  0.46189400  0.34470800  0.72931100  1
  O  O77  1  0.83556800  0.92546500  0.17859500  1
  O  O78  1  0.56339750  0.05223950  0.94036800  1
  O  O79  1  0.16264500  0.86554400  0.14673000  1
