# generated using pymatgen
data_Li6Co2C4SO16
_symmetry_space_group_name_H-M   'P 1'
_cell_length_a   13.25722600
_cell_length_b   13.25722600
_cell_length_c   13.25722600
_cell_angle_alpha   90.00000000
_cell_angle_beta   90.00000000
_cell_angle_gamma   90.00000000
_symmetry_Int_Tables_number   1
_chemical_formula_structural   Li6Co2C4SO16
_chemical_formula_sum   'Li48 Co16 C32 S8 O128'
_cell_volume   2330.01104480
_cell_formula_units_Z   8
loop_
 _symmetry_equiv_pos_site_id
 _symmetry_equiv_pos_as_xyz
  1  'x, y, z'
loop_
 _atom_site_type_symbol
 _atom_site_label
 _atom_site_symmetry_multiplicity
 _atom_site_fract_x
 _atom_site_fract_y
 _atom_site_fract_z
 _atom_site_occupancy
  Li  Li0  1  0.21841000  0.00000000  0.00000000  1
  Li  Li1  1  0.00000000  0.21841000  0.00000000  1
  Li  Li2  1  0.00000000  0.00000000  0.78159000  1
  Li  Li3  1  0.00000000  0.00000000  0.21841000  1
  Li  Li4  1  0.46841000  0.75000000  0.75000000  1
  Li  Li5  1  0.25000000  0.96841000  0.75000000  1
  Li  Li6  1  0.00000000  0.78159000  0.00000000  1
  Li  Li7  1  0.78159000  0.00000000  0.00000000  1
  Li  Li8  1  0.25000000  0.75000000  0.96841000  1
  Li  Li9  1  0.25000000  0.75000000  0.53159000  1
  Li  Li10  1  0.03159000  0.75000000  0.75000000  1
  Li  Li11  1  0.75000000  0.03159000  0.75000000  1
  Li  Li12  1  0.21841000  0.50000000  0.50000000  1
  Li  Li13  1  0.00000000  0.71841000  0.50000000  1
  Li  Li14  1  0.00000000  0.50000000  0.28159000  1
  Li  Li15  1  0.00000000  0.50000000  0.71841000  1
  Li  Li16  1  0.46841000  0.25000000  0.25000000  1
  Li  Li17  1  0.25000000  0.46841000  0.25000000  1
  Li  Li18  1  0.00000000  0.28159000  0.50000000  1
  Li  Li19  1  0.78159000  0.50000000  0.50000000  1
  Li  Li20  1  0.25000000  0.25000000  0.46841000  1
  Li  Li21  1  0.25000000  0.25000000  0.03159000  1
  Li  Li22  1  0.03159000  0.25000000  0.25000000  1
  Li  Li23  1  0.75000000  0.53159000  0.25000000  1
  Li  Li24  1  0.71841000  0.00000000  0.50000000  1
  Li  Li25  1  0.50000000  0.21841000  0.50000000  1
  Li  Li26  1  0.50000000  0.00000000  0.28159000  1
  Li  Li27  1  0.50000000  0.00000000  0.71841000  1
  Li  Li28  1  0.96841000  0.75000000  0.25000000  1
  Li  Li29  1  0.75000000  0.96841000  0.25000000  1
  Li  Li30  1  0.50000000  0.78159000  0.50000000  1
  Li  Li31  1  0.28159000  0.00000000  0.50000000  1
  Li  Li32  1  0.75000000  0.75000000  0.46841000  1
  Li  Li33  1  0.75000000  0.75000000  0.03159000  1
  Li  Li34  1  0.53159000  0.75000000  0.25000000  1
  Li  Li35  1  0.25000000  0.03159000  0.25000000  1
  Li  Li36  1  0.71841000  0.50000000  0.00000000  1
  Li  Li37  1  0.50000000  0.71841000  0.00000000  1
  Li  Li38  1  0.50000000  0.50000000  0.78159000  1
  Li  Li39  1  0.50000000  0.50000000  0.21841000  1
  Li  Li40  1  0.96841000  0.25000000  0.75000000  1
  Li  Li41  1  0.75000000  0.46841000  0.75000000  1
  Li  Li42  1  0.50000000  0.28159000  0.00000000  1
  Li  Li43  1  0.28159000  0.50000000  0.00000000  1
  Li  Li44  1  0.75000000  0.25000000  0.96841000  1
  Li  Li45  1  0.75000000  0.25000000  0.53159000  1
  Li  Li46  1  0.53159000  0.25000000  0.75000000  1
  Li  Li47  1  0.25000000  0.53159000  0.75000000  1
  Co  Co48  1  0.87500000  0.87500000  0.62500000  1
  Co  Co49  1  0.87500000  0.12500000  0.37500000  1
  Co  Co50  1  0.12500000  0.87500000  0.37500000  1
  Co  Co51  1  0.12500000  0.12500000  0.62500000  1
  Co  Co52  1  0.87500000  0.37500000  0.12500000  1
  Co  Co53  1  0.87500000  0.62500000  0.87500000  1
  Co  Co54  1  0.12500000  0.37500000  0.87500000  1
  Co  Co55  1  0.12500000  0.62500000  0.12500000  1
  Co  Co56  1  0.37500000  0.87500000  0.12500000  1
  Co  Co57  1  0.37500000  0.12500000  0.87500000  1
  Co  Co58  1  0.62500000  0.87500000  0.87500000  1
  Co  Co59  1  0.62500000  0.12500000  0.12500000  1
  Co  Co60  1  0.37500000  0.37500000  0.62500000  1
  Co  Co61  1  0.37500000  0.62500000  0.37500000  1
  Co  Co62  1  0.62500000  0.37500000  0.37500000  1
  Co  Co63  1  0.62500000  0.62500000  0.62500000  1
  C  C64  1  0.40088667  0.90088667  0.90088667  1
  C  C65  1  0.09911333  0.90088667  0.59911333  1
  C  C66  1  0.90088667  0.09911333  0.59911333  1
  C  C67  1  0.59911333  0.09911333  0.90088667  1
  C  C68  1  0.15088667  0.15088667  0.84911333  1
  C  C69  1  0.84911333  0.15088667  0.15088667  1
  C  C70  1  0.15088667  0.84911333  0.15088667  1
  C  C71  1  0.84911333  0.84911333  0.84911333  1
  C  C72  1  0.40088667  0.40088667  0.40088667  1
  C  C73  1  0.09911333  0.40088667  0.09911333  1
  C  C74  1  0.90088667  0.59911333  0.09911333  1
  C  C75  1  0.59911333  0.59911333  0.40088667  1
  C  C76  1  0.15088667  0.65088667  0.34911333  1
  C  C77  1  0.84911333  0.65088667  0.65088667  1
  C  C78  1  0.15088667  0.34911333  0.65088667  1
  C  C79  1  0.84911333  0.34911333  0.34911333  1
  C  C80  1  0.90088667  0.90088667  0.40088667  1
  C  C81  1  0.59911333  0.90088667  0.09911333  1
  C  C82  1  0.40088667  0.09911333  0.09911333  1
  C  C83  1  0.09911333  0.09911333  0.40088667  1
  C  C84  1  0.65088667  0.15088667  0.34911333  1
  C  C85  1  0.34911333  0.15088667  0.65088667  1
  C  C86  1  0.65088667  0.84911333  0.65088667  1
  C  C87  1  0.34911333  0.84911333  0.34911333  1
  C  C88  1  0.90088667  0.40088667  0.90088667  1
  C  C89  1  0.59911333  0.40088667  0.59911333  1
  C  C90  1  0.40088667  0.59911333  0.59911333  1
  C  C91  1  0.09911333  0.59911333  0.90088667  1
  C  C92  1  0.65088667  0.65088667  0.84911333  1
  C  C93  1  0.34911333  0.65088667  0.15088667  1
  C  C94  1  0.65088667  0.34911333  0.15088667  1
  C  C95  1  0.34911333  0.34911333  0.84911333  1
  S  S96  1  0.25000000  0.75000000  0.75000000  1
  S  S97  1  0.00000000  0.00000000  0.00000000  1
  S  S98  1  0.25000000  0.25000000  0.25000000  1
  S  S99  1  0.00000000  0.50000000  0.50000000  1
  S  S100  1  0.75000000  0.75000000  0.25000000  1
  S  S101  1  0.50000000  0.00000000  0.50000000  1
  S  S102  1  0.75000000  0.25000000  0.75000000  1
  S  S103  1  0.50000000  0.50000000  0.00000000  1
  O  O104  1  0.68489500  0.18489500  0.68489500  1
  O  O105  1  0.81510500  0.18489500  0.81510500  1
  O  O106  1  0.18489500  0.81510500  0.81510500  1
  O  O107  1  0.31510500  0.81510500  0.68489500  1
  O  O108  1  0.33405200  0.89542950  0.97217450  1
  O  O109  1  0.47217450  0.83405200  0.89542950  1
  O  O110  1  0.02782550  0.83405200  0.60457050  1
  O  O111  1  0.39542950  0.97217450  0.83405200  1
  O  O112  1  0.89542950  0.02782550  0.66594800  1
  O  O113  1  0.83405200  0.10457050  0.52782550  1
  O  O114  1  0.16594800  0.89542950  0.52782550  1
  O  O115  1  0.10457050  0.97217450  0.66594800  1
  O  O116  1  0.60457050  0.02782550  0.83405200  1
  O  O117  1  0.97217450  0.16594800  0.60457050  1
  O  O118  1  0.52782550  0.16594800  0.89542950  1
  O  O119  1  0.08405200  0.14542950  0.77782550  1
  O  O120  1  0.66594800  0.10457050  0.97217450  1
  O  O121  1  0.22217450  0.08405200  0.85457050  1
  O  O122  1  0.27782550  0.08405200  0.64542950  1
  O  O123  1  0.64542950  0.22217450  0.41594800  1
  O  O124  1  0.14542950  0.77782550  0.08405200  1
  O  O125  1  0.58405200  0.85457050  0.72217450  1
  O  O126  1  0.41594800  0.14542950  0.72217450  1
  O  O127  1  0.85457050  0.22217450  0.08405200  1
  O  O128  1  0.35457050  0.77782550  0.41594800  1
  O  O129  1  0.72217450  0.91594800  0.64542950  1
  O  O130  1  0.77782550  0.91594800  0.85457050  1
  O  O131  1  0.91594800  0.85457050  0.77782550  1
  O  O132  1  0.93489500  0.93489500  0.06510500  1
  O  O133  1  0.06510500  0.93489500  0.93489500  1
  O  O134  1  0.93489500  0.06510500  0.93489500  1
  O  O135  1  0.06510500  0.06510500  0.06510500  1
  O  O136  1  0.68489500  0.68489500  0.18489500  1
  O  O137  1  0.81510500  0.68489500  0.31510500  1
  O  O138  1  0.18489500  0.31510500  0.31510500  1
  O  O139  1  0.31510500  0.31510500  0.18489500  1
  O  O140  1  0.33405200  0.39542950  0.47217450  1
  O  O141  1  0.47217450  0.33405200  0.39542950  1
  O  O142  1  0.02782550  0.33405200  0.10457050  1
  O  O143  1  0.39542950  0.47217450  0.33405200  1
  O  O144  1  0.89542950  0.52782550  0.16594800  1
  O  O145  1  0.83405200  0.60457050  0.02782550  1
  O  O146  1  0.16594800  0.39542950  0.02782550  1
  O  O147  1  0.10457050  0.47217450  0.16594800  1
  O  O148  1  0.60457050  0.52782550  0.33405200  1
  O  O149  1  0.97217450  0.66594800  0.10457050  1
  O  O150  1  0.52782550  0.66594800  0.39542950  1
  O  O151  1  0.08405200  0.64542950  0.27782550  1
  O  O152  1  0.66594800  0.60457050  0.47217450  1
  O  O153  1  0.22217450  0.58405200  0.35457050  1
  O  O154  1  0.27782550  0.58405200  0.14542950  1
  O  O155  1  0.64542950  0.72217450  0.91594800  1
  O  O156  1  0.14542950  0.27782550  0.58405200  1
  O  O157  1  0.58405200  0.35457050  0.22217450  1
  O  O158  1  0.41594800  0.64542950  0.22217450  1
  O  O159  1  0.85457050  0.72217450  0.58405200  1
  O  O160  1  0.35457050  0.27782550  0.91594800  1
  O  O161  1  0.72217450  0.41594800  0.14542950  1
  O  O162  1  0.77782550  0.41594800  0.35457050  1
  O  O163  1  0.91594800  0.35457050  0.27782550  1
  O  O164  1  0.93489500  0.43489500  0.56510500  1
  O  O165  1  0.06510500  0.43489500  0.43489500  1
  O  O166  1  0.93489500  0.56510500  0.43489500  1
  O  O167  1  0.06510500  0.56510500  0.56510500  1
  O  O168  1  0.18489500  0.18489500  0.18489500  1
  O  O169  1  0.31510500  0.18489500  0.31510500  1
  O  O170  1  0.68489500  0.81510500  0.31510500  1
  O  O171  1  0.81510500  0.81510500  0.18489500  1
  O  O172  1  0.83405200  0.89542950  0.47217450  1
  O  O173  1  0.97217450  0.83405200  0.39542950  1
  O  O174  1  0.52782550  0.83405200  0.10457050  1
  O  O175  1  0.89542950  0.97217450  0.33405200  1
  O  O176  1  0.39542950  0.02782550  0.16594800  1
  O  O177  1  0.33405200  0.10457050  0.02782550  1
  O  O178  1  0.66594800  0.89542950  0.02782550  1
  O  O179  1  0.60457050  0.97217450  0.16594800  1
  O  O180  1  0.10457050  0.02782550  0.33405200  1
  O  O181  1  0.47217450  0.16594800  0.10457050  1
  O  O182  1  0.02782550  0.16594800  0.39542950  1
  O  O183  1  0.58405200  0.14542950  0.27782550  1
  O  O184  1  0.16594800  0.10457050  0.47217450  1
  O  O185  1  0.72217450  0.08405200  0.35457050  1
  O  O186  1  0.77782550  0.08405200  0.14542950  1
  O  O187  1  0.14542950  0.22217450  0.91594800  1
  O  O188  1  0.64542950  0.77782550  0.58405200  1
  O  O189  1  0.08405200  0.85457050  0.22217450  1
  O  O190  1  0.91594800  0.14542950  0.22217450  1
  O  O191  1  0.35457050  0.22217450  0.58405200  1
  O  O192  1  0.85457050  0.77782550  0.91594800  1
  O  O193  1  0.22217450  0.91594800  0.14542950  1
  O  O194  1  0.27782550  0.91594800  0.35457050  1
  O  O195  1  0.41594800  0.85457050  0.27782550  1
  O  O196  1  0.43489500  0.93489500  0.56510500  1
  O  O197  1  0.56510500  0.93489500  0.43489500  1
  O  O198  1  0.43489500  0.06510500  0.43489500  1
  O  O199  1  0.56510500  0.06510500  0.56510500  1
  O  O200  1  0.18489500  0.68489500  0.68489500  1
  O  O201  1  0.31510500  0.68489500  0.81510500  1
  O  O202  1  0.68489500  0.31510500  0.81510500  1
  O  O203  1  0.81510500  0.31510500  0.68489500  1
  O  O204  1  0.83405200  0.39542950  0.97217450  1
  O  O205  1  0.97217450  0.33405200  0.89542950  1
  O  O206  1  0.52782550  0.33405200  0.60457050  1
  O  O207  1  0.89542950  0.47217450  0.83405200  1
  O  O208  1  0.39542950  0.52782550  0.66594800  1
  O  O209  1  0.33405200  0.60457050  0.52782550  1
  O  O210  1  0.66594800  0.39542950  0.52782550  1
  O  O211  1  0.60457050  0.47217450  0.66594800  1
  O  O212  1  0.10457050  0.52782550  0.83405200  1
  O  O213  1  0.47217450  0.66594800  0.60457050  1
  O  O214  1  0.02782550  0.66594800  0.89542950  1
  O  O215  1  0.58405200  0.64542950  0.77782550  1
  O  O216  1  0.16594800  0.60457050  0.97217450  1
  O  O217  1  0.72217450  0.58405200  0.85457050  1
  O  O218  1  0.77782550  0.58405200  0.64542950  1
  O  O219  1  0.14542950  0.72217450  0.41594800  1
  O  O220  1  0.64542950  0.27782550  0.08405200  1
  O  O221  1  0.08405200  0.35457050  0.72217450  1
  O  O222  1  0.91594800  0.64542950  0.72217450  1
  O  O223  1  0.35457050  0.72217450  0.08405200  1
  O  O224  1  0.85457050  0.27782550  0.41594800  1
  O  O225  1  0.22217450  0.41594800  0.64542950  1
  O  O226  1  0.27782550  0.41594800  0.85457050  1
  O  O227  1  0.41594800  0.35457050  0.77782550  1
  O  O228  1  0.43489500  0.43489500  0.06510500  1
  O  O229  1  0.56510500  0.43489500  0.93489500  1
  O  O230  1  0.43489500  0.56510500  0.93489500  1
  O  O231  1  0.56510500  0.56510500  0.06510500  1
