# generated using pymatgen
data_U2Ni12As7
_symmetry_space_group_name_H-M   'P 1'
_cell_length_a   9.37988415
_cell_length_b   9.37988415
_cell_length_c   3.80553500
_cell_angle_alpha   90.00000000
_cell_angle_beta   90.00000000
_cell_angle_gamma   120.00000000
_symmetry_Int_Tables_number   1
_chemical_formula_structural   U2Ni12As7
_chemical_formula_sum   'U2 Ni12 As7'
_cell_volume   289.96214319
_cell_formula_units_Z   1
loop_
 _symmetry_equiv_pos_site_id
 _symmetry_equiv_pos_as_xyz
  1  'x, y, z'
loop_
 _atom_site_type_symbol
 _atom_site_label
 _atom_site_symmetry_multiplicity
 _atom_site_fract_x
 _atom_site_fract_y
 _atom_site_fract_z
 _atom_site_occupancy
  U  U0  1  0.00000000  0.00000000  0.00000000  1
  U  U1  1  0.33333333  0.66666667  0.50000000  1
  Ni  Ni2  1  0.09237500  0.71724000  0.00000000  1
  Ni  Ni3  1  0.28276000  0.37513500  0.00000000  1
  Ni  Ni4  1  0.62486500  0.90762500  0.00000000  1
  Ni  Ni5  1  0.05558200  0.28071400  0.50000000  1
  Ni  Ni6  1  0.71928600  0.77486800  0.50000000  1
  Ni  Ni7  1  0.22513200  0.94441800  0.50000000  1
  Ni  Ni8  1  0.78268200  0.23622100  0.00000000  1
  Ni  Ni9  1  0.76377900  0.54646100  0.00000000  1
  Ni  Ni10  1  0.45353900  0.21731800  0.00000000  1
  Ni  Ni11  1  0.94800400  0.48637300  0.50000000  1
  Ni  Ni12  1  0.51362700  0.46163100  0.50000000  1
  Ni  Ni13  1  0.53836900  0.05199600  0.50000000  1
  As  As14  1  0.66666667  0.33333333  0.50000000  1
  As  As15  1  0.94703700  0.73644600  0.50000000  1
  As  As16  1  0.26355400  0.21059100  0.50000000  1
  As  As17  1  0.78940900  0.05296300  0.50000000  1
  As  As18  1  0.07498000  0.44722200  0.00000000  1
  As  As19  1  0.55277800  0.62775800  0.00000000  1
  As  As20  1  0.37224200  0.92502000  0.00000000  1
