# generated using pymatgen
data_Mn6O7F5
_symmetry_space_group_name_H-M   'P 1'
_cell_length_a   9.29402915
_cell_length_b   6.28135682
_cell_length_c   7.93155680
_cell_angle_alpha   90.00000000
_cell_angle_beta   116.79527402
_cell_angle_gamma   90.00000000
_symmetry_Int_Tables_number   1
_chemical_formula_structural   Mn6O7F5
_chemical_formula_sum   'Mn12 O14 F10'
_cell_volume   413.31770490
_cell_formula_units_Z   2
loop_
 _symmetry_equiv_pos_site_id
 _symmetry_equiv_pos_as_xyz
  1  'x, y, z'
loop_
 _atom_site_type_symbol
 _atom_site_label
 _atom_site_symmetry_multiplicity
 _atom_site_fract_x
 _atom_site_fract_y
 _atom_site_fract_z
 _atom_site_occupancy
  Mn  Mn0  1  0.83358000  0.50000000  0.83414700  1
  Mn  Mn1  1  0.66328900  0.00000000  0.65471200  1
  Mn  Mn2  1  0.34176000  0.00000000  0.32737400  1
  Mn  Mn3  1  0.65637900  0.00000000  0.18971800  1
  Mn  Mn4  1  0.50216200  0.50000000  0.49467000  1
  Mn  Mn5  1  0.99622200  0.00000000  0.00359200  1
  Mn  Mn6  1  0.33358000  0.00000000  0.83414700  1
  Mn  Mn7  1  0.16328900  0.50000000  0.65471200  1
  Mn  Mn8  1  0.84176000  0.50000000  0.32737400  1
  Mn  Mn9  1  0.15637900  0.50000000  0.18971800  1
  Mn  Mn10  1  0.00216200  0.00000000  0.49467000  1
  Mn  Mn11  1  0.49622200  0.50000000  0.00359200  1
  O  O12  1  0.66624250  0.30303850  0.66622500  1
  O  O13  1  0.33378050  0.30597750  0.33007200  1
  O  O14  1  0.56579500  0.00000000  0.38247100  1
  O  O15  1  0.83378050  0.19402250  0.33007200  1
  O  O16  1  0.16624250  0.19696150  0.66622500  1
  O  O17  1  0.49969250  0.19621450  0.00469500  1
  O  O18  1  0.49969250  0.80378550  0.00469500  1
  O  O19  1  0.16624250  0.80303850  0.66622500  1
  O  O20  1  0.83378050  0.80597750  0.33007200  1
  O  O21  1  0.06579500  0.50000000  0.38247100  1
  O  O22  1  0.33378050  0.69402250  0.33007200  1
  O  O23  1  0.66624250  0.69696150  0.66622500  1
  O  O24  1  0.99969250  0.69621450  0.00469500  1
  O  O25  1  0.99969250  0.30378550  0.00469500  1
  F  F26  1  0.61765700  0.50000000  0.29893100  1
  F  F27  1  0.94787300  0.50000000  0.63892300  1
  F  F28  1  0.26767100  0.50000000  0.94648300  1
  F  F29  1  0.88834600  0.00000000  0.69981000  1
  F  F30  1  0.21983700  0.00000000  0.02718600  1
  F  F31  1  0.11765700  0.00000000  0.29893100  1
  F  F32  1  0.44787300  0.00000000  0.63892300  1
  F  F33  1  0.76767100  0.00000000  0.94648300  1
  F  F34  1  0.38834600  0.50000000  0.69981000  1
  F  F35  1  0.71983700  0.50000000  0.02718600  1
