# generated using pymatgen
data_Li2Mn3CuO8
_symmetry_space_group_name_H-M   'P 1'
_cell_length_a   5.83533470
_cell_length_b   5.83533470
_cell_length_c   14.62982809
_cell_angle_alpha   90.00000000
_cell_angle_beta   90.00000000
_cell_angle_gamma   120.00000000
_symmetry_Int_Tables_number   1
_chemical_formula_structural   Li2Mn3CuO8
_chemical_formula_sum   'Li6 Mn9 Cu3 O24'
_cell_volume   431.42111410
_cell_formula_units_Z   3
loop_
 _symmetry_equiv_pos_site_id
 _symmetry_equiv_pos_as_xyz
  1  'x, y, z'
loop_
 _atom_site_type_symbol
 _atom_site_label
 _atom_site_symmetry_multiplicity
 _atom_site_fract_x
 _atom_site_fract_y
 _atom_site_fract_z
 _atom_site_occupancy
  Li  Li0  1  0.00000000  0.00000000  0.11972000  1
  Li  Li1  1  0.33333333  0.66666667  0.16387767  1
  Li  Li2  1  0.66666667  0.33333333  0.45305333  1
  Li  Li3  1  0.00000000  0.00000000  0.49721100  1
  Li  Li4  1  0.33333333  0.66666667  0.78638667  1
  Li  Li5  1  0.66666667  0.33333333  0.83054433  1
  Mn  Mn6  1  0.49795167  0.50204833  0.00146733  1
  Mn  Mn7  1  0.49795167  0.99590333  0.00146733  1
  Mn  Mn8  1  0.00409667  0.50204833  0.00146733  1
  Mn  Mn9  1  0.16461833  0.83538167  0.33480067  1
  Mn  Mn10  1  0.16461833  0.32923667  0.33480067  1
  Mn  Mn11  1  0.67076333  0.83538167  0.33480067  1
  Mn  Mn12  1  0.83128500  0.16871500  0.66813400  1
  Mn  Mn13  1  0.83128500  0.66257000  0.66813400  1
  Mn  Mn14  1  0.33743000  0.16871500  0.66813400  1
  Cu  Cu15  1  0.66666667  0.33333333  0.21741733  1
  Cu  Cu16  1  0.33333333  0.66666667  0.55075067  1
  Cu  Cu17  1  0.00000000  0.00000000  0.88408400  1
  O  O18  1  0.00000000  0.00000000  0.26285700  1
  O  O19  1  0.63994000  0.81997000  0.07044400  1
  O  O20  1  0.18003000  0.36006000  0.07044400  1
  O  O21  1  0.18003000  0.81997000  0.07044400  1
  O  O22  1  0.48542700  0.51457300  0.26036500  1
  O  O23  1  0.48542700  0.97085400  0.26036500  1
  O  O24  1  0.02914600  0.51457300  0.26036500  1
  O  O25  1  0.66666667  0.33333333  0.07263233  1
  O  O26  1  0.66666667  0.33333333  0.59619033  1
  O  O27  1  0.30660667  0.15330333  0.40377733  1
  O  O28  1  0.84669667  0.69339333  0.40377733  1
  O  O29  1  0.84669667  0.15330333  0.40377733  1
  O  O30  1  0.15209367  0.84790633  0.59369833  1
  O  O31  1  0.15209367  0.30418733  0.59369833  1
  O  O32  1  0.69581267  0.84790633  0.59369833  1
  O  O33  1  0.33333333  0.66666667  0.40596567  1
  O  O34  1  0.33333333  0.66666667  0.92952367  1
  O  O35  1  0.97327333  0.48663667  0.73711067  1
  O  O36  1  0.51336333  0.02672667  0.73711067  1
  O  O37  1  0.51336333  0.48663667  0.73711067  1
  O  O38  1  0.81876033  0.18123967  0.92703167  1
  O  O39  1  0.81876033  0.63752067  0.92703167  1
  O  O40  1  0.36247933  0.18123967  0.92703167  1
  O  O41  1  0.00000000  0.00000000  0.73929900  1
