# generated using pymatgen
data_LiV2OF5
_symmetry_space_group_name_H-M   'P 1'
_cell_length_a   5.52917091
_cell_length_b   7.66805554
_cell_length_c   8.89063525
_cell_angle_alpha   113.70574722
_cell_angle_beta   105.38950531
_cell_angle_gamma   94.66739092
_symmetry_Int_Tables_number   1
_chemical_formula_structural   LiV2OF5
_chemical_formula_sum   'Li3 V6 O3 F15'
_cell_volume   325.12534451
_cell_formula_units_Z   3
loop_
 _symmetry_equiv_pos_site_id
 _symmetry_equiv_pos_as_xyz
  1  'x, y, z'
loop_
 _atom_site_type_symbol
 _atom_site_label
 _atom_site_symmetry_multiplicity
 _atom_site_fract_x
 _atom_site_fract_y
 _atom_site_fract_z
 _atom_site_occupancy
  Li  Li0  1  0.42549100  0.27557800  0.99464900  1
  Li  Li1  1  0.90293500  0.53627500  0.65199900  1
  Li  Li2  1  0.43711000  0.79058000  0.01659300  1
  V  V3  1  0.00620600  0.99770800  0.99086800  1
  V  V4  1  0.35545500  0.33301400  0.65729600  1
  V  V5  1  0.32489600  0.85123400  0.67459800  1
  V  V6  1  0.66549200  0.17414900  0.34490400  1
  V  V7  1  0.64492700  0.66924200  0.32622900  1
  V  V8  1  0.01878600  0.50537000  0.01445500  1
  O  O9  1  0.22854100  0.97998300  0.86353900  1
  O  O10  1  0.57065900  0.31820600  0.53047900  1
  O  O11  1  0.37022800  0.61726200  0.12644100  1
  F  F12  1  0.10474400  0.34314900  0.79729600  1
  F  F13  1  0.63020300  0.37284600  0.88301800  1
  F  F14  1  0.28315700  0.04544300  0.58262300  1
  F  F15  1  0.95095700  0.69478100  0.90277300  1
  F  F16  1  0.36711800  0.63111100  0.75994000  1
  F  F17  1  0.03387400  0.31800300  0.47444500  1
  F  F18  1  0.69593900  0.96539400  0.79567400  1
  F  F19  1  0.42870200  0.67832600  0.47342000  1
  F  F20  1  0.30545200  0.01645600  0.19079200  1
  F  F21  1  0.94836800  0.69914200  0.53842000  1
  F  F22  1  0.61744200  0.36791900  0.23785700  1
  F  F23  1  0.74754500  0.99699200  0.12123800  1
  F  F24  1  0.71507500  0.95864300  0.41280300  1
  F  F25  1  0.05794000  0.28828400  0.08464600  1
  F  F26  1  0.90459200  0.66611700  0.20970900  1
