# generated using pymatgen
data_LiCo2O2F3
_symmetry_space_group_name_H-M   'P 1'
_cell_length_a   3.64924200
_cell_length_b   9.94429600
_cell_length_c   10.35343700
_cell_angle_alpha   90.00000000
_cell_angle_beta   90.00000000
_cell_angle_gamma   90.00000000
_symmetry_Int_Tables_number   1
_chemical_formula_structural   LiCo2O2F3
_chemical_formula_sum   'Li4 Co8 O8 F12'
_cell_volume   375.71735194
_cell_formula_units_Z   4
loop_
 _symmetry_equiv_pos_site_id
 _symmetry_equiv_pos_as_xyz
  1  'x, y, z'
loop_
 _atom_site_type_symbol
 _atom_site_label
 _atom_site_symmetry_multiplicity
 _atom_site_fract_x
 _atom_site_fract_y
 _atom_site_fract_z
 _atom_site_occupancy
  Li  Li0  1  0.00000000  0.17297300  0.75000000  1
  Li  Li1  1  0.50000000  0.32702700  0.25000000  1
  Li  Li2  1  0.50000000  0.67297300  0.75000000  1
  Li  Li3  1  0.00000000  0.82702700  0.25000000  1
  Co  Co4  1  0.00000000  0.14635300  0.05784900  1
  Co  Co5  1  0.00000000  0.14635300  0.44215100  1
  Co  Co6  1  0.50000000  0.35364700  0.55784900  1
  Co  Co7  1  0.50000000  0.35364700  0.94215100  1
  Co  Co8  1  0.50000000  0.64635300  0.05784900  1
  Co  Co9  1  0.50000000  0.64635300  0.44215100  1
  Co  Co10  1  0.00000000  0.85364700  0.55784900  1
  Co  Co11  1  0.00000000  0.85364700  0.94215100  1
  O  O12  1  0.00000000  0.32415700  0.95330400  1
  O  O13  1  0.00000000  0.32415700  0.54669600  1
  O  O14  1  0.50000000  0.17584300  0.45330400  1
  O  O15  1  0.50000000  0.17584300  0.04669600  1
  O  O16  1  0.50000000  0.82415700  0.95330400  1
  O  O17  1  0.50000000  0.82415700  0.54669600  1
  O  O18  1  0.00000000  0.67584300  0.45330400  1
  O  O19  1  0.00000000  0.67584300  0.04669600  1
  F  F20  1  0.00000000  0.03977100  0.61804600  1
  F  F21  1  0.00000000  0.03977100  0.88195400  1
  F  F22  1  0.00000000  0.23699000  0.25000000  1
  F  F23  1  0.50000000  0.26301000  0.75000000  1
  F  F24  1  0.50000000  0.46022900  0.11804600  1
  F  F25  1  0.50000000  0.46022900  0.38195400  1
  F  F26  1  0.50000000  0.53977100  0.61804600  1
  F  F27  1  0.50000000  0.53977100  0.88195400  1
  F  F28  1  0.50000000  0.73699000  0.25000000  1
  F  F29  1  0.00000000  0.76301000  0.75000000  1
  F  F30  1  0.00000000  0.96022900  0.11804600  1
  F  F31  1  0.00000000  0.96022900  0.38195400  1
