# generated using pymatgen
data_Li8TbO6
_symmetry_space_group_name_H-M   'P 1'
_cell_length_a   5.64358582
_cell_length_b   5.64358582
_cell_length_c   16.20098646
_cell_angle_alpha   90.00000000
_cell_angle_beta   90.00000000
_cell_angle_gamma   120.00000000
_symmetry_Int_Tables_number   1
_chemical_formula_structural   Li8TbO6
_chemical_formula_sum   'Li24 Tb3 O18'
_cell_volume   446.87119166
_cell_formula_units_Z   3
loop_
 _symmetry_equiv_pos_site_id
 _symmetry_equiv_pos_as_xyz
  1  'x, y, z'
loop_
 _atom_site_type_symbol
 _atom_site_label
 _atom_site_symmetry_multiplicity
 _atom_site_fract_x
 _atom_site_fract_y
 _atom_site_fract_z
 _atom_site_occupancy
  Li  Li0  1  0.33333333  0.66666667  0.02010667  1
  Li  Li1  1  0.29666400  0.31266600  0.21053400  1
  Li  Li2  1  0.01600200  0.70333600  0.21053400  1
  Li  Li3  1  0.68733400  0.98399800  0.21053400  1
  Li  Li4  1  0.37000267  0.02066733  0.12279933  1
  Li  Li5  1  0.65066467  0.62999733  0.12279933  1
  Li  Li6  1  0.33333333  0.66666667  0.31322667  1
  Li  Li7  1  0.97933267  0.34933533  0.12279933  1
  Li  Li8  1  0.00000000  0.00000000  0.35344000  1
  Li  Li9  1  0.96333067  0.64599933  0.54386733  1
  Li  Li10  1  0.68266867  0.03666933  0.54386733  1
  Li  Li11  1  0.35400067  0.31733133  0.54386733  1
  Li  Li12  1  0.03666933  0.35400067  0.45613267  1
  Li  Li13  1  0.31733133  0.96333067  0.45613267  1
  Li  Li14  1  0.00000000  0.00000000  0.64656000  1
  Li  Li15  1  0.64599933  0.68266867  0.45613267  1
  Li  Li16  1  0.66666667  0.33333333  0.68677333  1
  Li  Li17  1  0.62999733  0.97933267  0.87720067  1
  Li  Li18  1  0.34933533  0.37000267  0.87720067  1
  Li  Li19  1  0.02066733  0.65066467  0.87720067  1
  Li  Li20  1  0.70333600  0.68733400  0.78946600  1
  Li  Li21  1  0.98399800  0.29666400  0.78946600  1
  Li  Li22  1  0.66666667  0.33333333  0.97989333  1
  Li  Li23  1  0.31266600  0.01600200  0.78946600  1
  Tb  Tb24  1  0.00000000  0.00000000  0.00000000  1
  Tb  Tb25  1  0.66666667  0.33333333  0.33333333  1
  Tb  Tb26  1  0.33333333  0.66666667  0.66666667  1
  O  O27  1  0.99515500  0.34915700  0.24766200  1
  O  O28  1  0.01582367  0.68733533  0.08567133  1
  O  O29  1  0.67151167  0.98417633  0.08567133  1
  O  O30  1  0.35400200  0.00484500  0.24766200  1
  O  O31  1  0.65084300  0.64599800  0.24766200  1
  O  O32  1  0.31266467  0.32848833  0.08567133  1
  O  O33  1  0.66182167  0.68249033  0.58099533  1
  O  O34  1  0.68249033  0.02066867  0.41900467  1
  O  O35  1  0.33817833  0.31750967  0.41900467  1
  O  O36  1  0.02066867  0.33817833  0.58099533  1
  O  O37  1  0.31750967  0.97933133  0.58099533  1
  O  O38  1  0.97933133  0.66182167  0.41900467  1
  O  O39  1  0.32848833  0.01582367  0.91432867  1
  O  O40  1  0.34915700  0.35400200  0.75233800  1
  O  O41  1  0.00484500  0.65084300  0.75233800  1
  O  O42  1  0.68733533  0.67151167  0.91432867  1
  O  O43  1  0.98417633  0.31266467  0.91432867  1
  O  O44  1  0.64599800  0.99515500  0.75233800  1
