# generated using pymatgen
data_LiReO3
_symmetry_space_group_name_H-M   'P 1'
_cell_length_a   5.14041424
_cell_length_b   5.14041424
_cell_length_c   13.63036658
_cell_angle_alpha   90.00000000
_cell_angle_beta   90.00000000
_cell_angle_gamma   120.00000000
_symmetry_Int_Tables_number   1
_chemical_formula_structural   LiReO3
_chemical_formula_sum   'Li6 Re6 O18'
_cell_volume   311.91366588
_cell_formula_units_Z   6
loop_
 _symmetry_equiv_pos_site_id
 _symmetry_equiv_pos_as_xyz
  1  'x, y, z'
loop_
 _atom_site_type_symbol
 _atom_site_label
 _atom_site_symmetry_multiplicity
 _atom_site_fract_x
 _atom_site_fract_y
 _atom_site_fract_z
 _atom_site_occupancy
  Li  Li0  1  0.66666667  0.33333333  0.11547833  1
  Li  Li1  1  0.00000000  0.00000000  0.28214500  1
  Li  Li2  1  0.33333333  0.66666667  0.44881167  1
  Li  Li3  1  0.66666667  0.33333333  0.61547833  1
  Li  Li4  1  0.00000000  0.00000000  0.78214500  1
  Li  Li5  1  0.33333333  0.66666667  0.94881167  1
  Re  Re6  1  0.33333333  0.66666667  0.16392967  1
  Re  Re7  1  0.66666667  0.33333333  0.33059633  1
  Re  Re8  1  0.00000000  0.00000000  0.49726300  1
  Re  Re9  1  0.33333333  0.66666667  0.66392967  1
  Re  Re10  1  0.66666667  0.33333333  0.83059633  1
  Re  Re11  1  0.00000000  0.00000000  0.99726300  1
  O  O12  1  0.28204567  0.33742833  0.07719733  1
  O  O13  1  0.05538267  0.71795433  0.07719733  1
  O  O14  1  0.99590500  0.38462100  0.24386400  1
  O  O15  1  0.38871600  0.00409500  0.24386400  1
  O  O16  1  0.61537900  0.61128400  0.24386400  1
  O  O17  1  0.66257167  0.94461733  0.07719733  1
  O  O18  1  0.94871233  0.67076167  0.41053067  1
  O  O19  1  0.72204933  0.05128767  0.41053067  1
  O  O20  1  0.66257167  0.71795433  0.57719733  1
  O  O21  1  0.05538267  0.33742833  0.57719733  1
  O  O22  1  0.28204567  0.94461733  0.57719733  1
  O  O23  1  0.32923833  0.27795067  0.41053067  1
  O  O24  1  0.61537900  0.00409500  0.74386400  1
  O  O25  1  0.38871600  0.38462100  0.74386400  1
  O  O26  1  0.32923833  0.05128767  0.91053067  1
  O  O27  1  0.72204933  0.67076167  0.91053067  1
  O  O28  1  0.94871233  0.27795067  0.91053067  1
  O  O29  1  0.99590500  0.61128400  0.74386400  1
