# generated using pymatgen
data_Li10Mn(SiO5)2
_symmetry_space_group_name_H-M   'P 1'
_cell_length_a   30.13489800
_cell_length_b   6.11897400
_cell_length_c   5.17502085
_cell_angle_alpha   90.00000000
_cell_angle_beta   99.82536291
_cell_angle_gamma   90.00000000
_symmetry_Int_Tables_number   1
_chemical_formula_structural   Li10Mn(SiO5)2
_chemical_formula_sum   'Li40 Mn4 Si8 O40'
_cell_volume   940.24974763
_cell_formula_units_Z   4
loop_
 _symmetry_equiv_pos_site_id
 _symmetry_equiv_pos_as_xyz
  1  'x, y, z'
loop_
 _atom_site_type_symbol
 _atom_site_label
 _atom_site_symmetry_multiplicity
 _atom_site_fract_x
 _atom_site_fract_y
 _atom_site_fract_z
 _atom_site_occupancy
  Li  Li0  1  0.00877400  0.50000000  0.75616500  1
  Li  Li1  1  0.06584800  0.70958400  0.40044000  1
  Li  Li2  1  0.06584800  0.29041600  0.40044000  1
  Li  Li3  1  0.13253700  0.00000000  0.28194600  1
  Li  Li4  1  0.13190650  0.78405850  0.73438400  1
  Li  Li5  1  0.13190650  0.21594150  0.73438400  1
  Li  Li6  1  0.17548400  0.50000000  0.42854400  1
  Li  Li7  1  0.19534150  0.75760350  0.09957700  1
  Li  Li8  1  0.19534150  0.24239650  0.09957700  1
  Li  Li9  1  0.23089000  0.50000000  0.82335000  1
  Li  Li10  1  0.26911000  0.00000000  0.17665000  1
  Li  Li11  1  0.30465850  0.25760350  0.90042300  1
  Li  Li12  1  0.30465850  0.74239650  0.90042300  1
  Li  Li13  1  0.32451600  0.00000000  0.57145600  1
  Li  Li14  1  0.36809350  0.28405850  0.26561600  1
  Li  Li15  1  0.36809350  0.71594150  0.26561600  1
  Li  Li16  1  0.36746300  0.50000000  0.71805400  1
  Li  Li17  1  0.43415200  0.79041600  0.59956000  1
  Li  Li18  1  0.43415200  0.20958400  0.59956000  1
  Li  Li19  1  0.49122600  0.00000000  0.24383500  1
  Li  Li20  1  0.50877400  0.00000000  0.75616500  1
  Li  Li21  1  0.56584800  0.20958400  0.40044000  1
  Li  Li22  1  0.56584800  0.79041600  0.40044000  1
  Li  Li23  1  0.63253700  0.50000000  0.28194600  1
  Li  Li24  1  0.63190650  0.28405850  0.73438400  1
  Li  Li25  1  0.63190650  0.71594150  0.73438400  1
  Li  Li26  1  0.67548400  0.00000000  0.42854400  1
  Li  Li27  1  0.69534150  0.25760350  0.09957700  1
  Li  Li28  1  0.69534150  0.74239650  0.09957700  1
  Li  Li29  1  0.73089000  0.00000000  0.82335000  1
  Li  Li30  1  0.76911000  0.50000000  0.17665000  1
  Li  Li31  1  0.80465850  0.75760350  0.90042300  1
  Li  Li32  1  0.80465850  0.24239650  0.90042300  1
  Li  Li33  1  0.82451600  0.50000000  0.57145600  1
  Li  Li34  1  0.86809350  0.78405850  0.26561600  1
  Li  Li35  1  0.86809350  0.21594150  0.26561600  1
  Li  Li36  1  0.86746300  0.00000000  0.71805400  1
  Li  Li37  1  0.93415200  0.29041600  0.59956000  1
  Li  Li38  1  0.93415200  0.70958400  0.59956000  1
  Li  Li39  1  0.99122600  0.50000000  0.24383500  1
  Mn  Mn40  1  0.03775000  0.00000000  0.70384800  1
  Mn  Mn41  1  0.46225000  0.50000000  0.29615200  1
  Mn  Mn42  1  0.53775000  0.50000000  0.70384800  1
  Mn  Mn43  1  0.96225000  0.00000000  0.29615200  1
  Si  Si44  1  0.10041500  0.50000000  0.00586900  1
  Si  Si45  1  0.21956500  0.00000000  0.62833500  1
  Si  Si46  1  0.28043500  0.50000000  0.37166500  1
  Si  Si47  1  0.39958500  0.00000000  0.99413100  1
  Si  Si48  1  0.60041500  0.00000000  0.00586900  1
  Si  Si49  1  0.71956500  0.50000000  0.62833500  1
  Si  Si50  1  0.78043500  0.00000000  0.37166500  1
  Si  Si51  1  0.89958500  0.50000000  0.99413100  1
  O  O52  1  0.05049600  0.50000000  0.09864700  1
  O  O53  1  0.09279200  0.00000000  0.54653000  1
  O  O54  1  0.09564800  0.50000000  0.68131300  1
  O  O55  1  0.12948150  0.71748650  0.12013100  1
  O  O56  1  0.12948150  0.28251350  0.12013100  1
  O  O57  1  0.19422500  0.77481200  0.71535200  1
  O  O58  1  0.19422500  0.22518800  0.71535200  1
  O  O59  1  0.21416600  0.00000000  0.30708700  1
  O  O60  1  0.22843500  0.50000000  0.21911400  1
  O  O61  1  0.27156500  0.00000000  0.78088600  1
  O  O62  1  0.28583400  0.50000000  0.69291300  1
  O  O63  1  0.30577500  0.72518800  0.28464800  1
  O  O64  1  0.30577500  0.27481200  0.28464800  1
  O  O65  1  0.37051850  0.21748650  0.87986900  1
  O  O66  1  0.37051850  0.78251350  0.87986900  1
  O  O67  1  0.40435200  0.00000000  0.31868700  1
  O  O68  1  0.40720800  0.50000000  0.45347000  1
  O  O69  1  0.44950400  0.00000000  0.90135300  1
  O  O70  1  0.00000000  0.75356100  0.50000000  1
  O  O71  1  0.00000000  0.24643900  0.50000000  1
  O  O72  1  0.55049600  0.00000000  0.09864700  1
  O  O73  1  0.59279200  0.50000000  0.54653000  1
  O  O74  1  0.59564800  0.00000000  0.68131300  1
  O  O75  1  0.62948150  0.21748650  0.12013100  1
  O  O76  1  0.62948150  0.78251350  0.12013100  1
  O  O77  1  0.69422500  0.27481200  0.71535200  1
  O  O78  1  0.69422500  0.72518800  0.71535200  1
  O  O79  1  0.71416600  0.50000000  0.30708700  1
  O  O80  1  0.72843500  0.00000000  0.21911400  1
  O  O81  1  0.77156500  0.50000000  0.78088600  1
  O  O82  1  0.78583400  0.00000000  0.69291300  1
  O  O83  1  0.80577500  0.22518800  0.28464800  1
  O  O84  1  0.80577500  0.77481200  0.28464800  1
  O  O85  1  0.87051850  0.71748650  0.87986900  1
  O  O86  1  0.87051850  0.28251350  0.87986900  1
  O  O87  1  0.90435200  0.50000000  0.31868700  1
  O  O88  1  0.90720800  0.00000000  0.45347000  1
  O  O89  1  0.94950400  0.50000000  0.90135300  1
  O  O90  1  0.50000000  0.25356100  0.50000000  1
  O  O91  1  0.50000000  0.74643900  0.50000000  1
