# generated using pymatgen
data_Pr4Ge7
_symmetry_space_group_name_H-M   'P 1'
_cell_length_a   6.08242400
_cell_length_b   14.13808000
_cell_length_c   12.16882000
_cell_angle_alpha   90.00000000
_cell_angle_beta   90.00000000
_cell_angle_gamma   90.00000000
_symmetry_Int_Tables_number   1
_chemical_formula_structural   Pr4Ge7
_chemical_formula_sum   'Pr16 Ge28'
_cell_volume   1046.44303810
_cell_formula_units_Z   4
loop_
 _symmetry_equiv_pos_site_id
 _symmetry_equiv_pos_as_xyz
  1  'x, y, z'
loop_
 _atom_site_type_symbol
 _atom_site_label
 _atom_site_symmetry_multiplicity
 _atom_site_fract_x
 _atom_site_fract_y
 _atom_site_fract_z
 _atom_site_occupancy
  Pr  Pr0  1  0.76399550  0.24503850  0.61936700  1
  Pr  Pr1  1  0.26399550  0.25496150  0.38063300  1
  Pr  Pr2  1  0.73600450  0.25496150  0.11936700  1
  Pr  Pr3  1  0.23600450  0.24503850  0.88063300  1
  Pr  Pr4  1  0.50000000  0.00359900  0.75000000  1
  Pr  Pr5  1  0.00000000  0.49640100  0.25000000  1
  Pr  Pr6  1  0.98780100  0.00000000  0.00000000  1
  Pr  Pr7  1  0.01219900  0.00000000  0.50000000  1
  Pr  Pr8  1  0.26399550  0.74503850  0.61936700  1
  Pr  Pr9  1  0.76399550  0.75496150  0.38063300  1
  Pr  Pr10  1  0.23600450  0.75496150  0.11936700  1
  Pr  Pr11  1  0.73600450  0.74503850  0.88063300  1
  Pr  Pr12  1  0.00000000  0.50359900  0.75000000  1
  Pr  Pr13  1  0.50000000  0.99640100  0.25000000  1
  Pr  Pr14  1  0.48780100  0.50000000  0.00000000  1
  Pr  Pr15  1  0.51219900  0.50000000  0.50000000  1
  Ge  Ge16  1  0.98445350  0.41205350  0.98999700  1
  Ge  Ge17  1  0.48445350  0.08794650  0.01000300  1
  Ge  Ge18  1  0.51554650  0.08794650  0.48999700  1
  Ge  Ge19  1  0.01554650  0.41205350  0.51000300  1
  Ge  Ge20  1  0.75312700  0.17138800  0.87138500  1
  Ge  Ge21  1  0.25312700  0.32861200  0.12861500  1
  Ge  Ge22  1  0.74687300  0.32861200  0.37138500  1
  Ge  Ge23  1  0.24687300  0.17138800  0.62861500  1
  Ge  Ge24  1  0.67687000  0.35019800  0.83936600  1
  Ge  Ge25  1  0.17687000  0.14980200  0.16063400  1
  Ge  Ge26  1  0.82313000  0.14980200  0.33936600  1
  Ge  Ge27  1  0.32313000  0.35019800  0.66063400  1
  Ge  Ge28  1  0.00000000  0.06251800  0.75000000  1
  Ge  Ge29  1  0.50000000  0.43748200  0.25000000  1
  Ge  Ge30  1  0.48445350  0.91205350  0.98999700  1
  Ge  Ge31  1  0.98445350  0.58794650  0.01000300  1
  Ge  Ge32  1  0.01554650  0.58794650  0.48999700  1
  Ge  Ge33  1  0.51554650  0.91205350  0.51000300  1
  Ge  Ge34  1  0.25312700  0.67138800  0.87138500  1
  Ge  Ge35  1  0.75312700  0.82861200  0.12861500  1
  Ge  Ge36  1  0.24687300  0.82861200  0.37138500  1
  Ge  Ge37  1  0.74687300  0.67138800  0.62861500  1
  Ge  Ge38  1  0.17687000  0.85019800  0.83936600  1
  Ge  Ge39  1  0.67687000  0.64980200  0.16063400  1
  Ge  Ge40  1  0.32313000  0.64980200  0.33936600  1
  Ge  Ge41  1  0.82313000  0.85019800  0.66063400  1
  Ge  Ge42  1  0.50000000  0.56251800  0.75000000  1
  Ge  Ge43  1  0.00000000  0.93748200  0.25000000  1
