# generated using pymatgen
data_LiVPO4
_symmetry_space_group_name_H-M   'P 1'
_cell_length_a   4.93732316
_cell_length_b   4.93732316
_cell_length_c   23.89430550
_cell_angle_alpha   90.00000000
_cell_angle_beta   90.00000000
_cell_angle_gamma   120.00000000
_symmetry_Int_Tables_number   1
_chemical_formula_structural   LiVPO4
_chemical_formula_sum   'Li6 V6 P6 O24'
_cell_volume   504.43841300
_cell_formula_units_Z   6
loop_
 _symmetry_equiv_pos_site_id
 _symmetry_equiv_pos_as_xyz
  1  'x, y, z'
loop_
 _atom_site_type_symbol
 _atom_site_label
 _atom_site_symmetry_multiplicity
 _atom_site_fract_x
 _atom_site_fract_y
 _atom_site_fract_z
 _atom_site_occupancy
  Li  Li0  1  0.00000000  0.00000000  0.71717100  1
  Li  Li1  1  0.33333333  0.66666667  0.94949567  1
  Li  Li2  1  0.66666667  0.33333333  0.05050433  1
  Li  Li3  1  1.00000000  0.00000000  0.28282900  1
  Li  Li4  1  0.33333333  0.66666667  0.38383767  1
  Li  Li5  1  0.66666667  0.33333333  0.61616233  1
  V  V6  1  0.00000000  0.00000000  0.83789967  1
  V  V7  1  0.33333333  0.66666667  0.82876700  1
  V  V8  1  0.66666667  0.33333333  0.17123300  1
  V  V9  1  1.00000000  0.00000000  0.16210033  1
  V  V10  1  0.33333333  0.66666667  0.50456633  1
  V  V11  1  0.66666667  0.33333333  0.49543367  1
  P  P12  1  0.66666667  0.33333333  0.75612300  1
  P  P13  1  0.66666667  0.33333333  0.91054367  1
  P  P14  1  0.33333333  0.66666667  0.08945633  1
  P  P15  1  0.33333333  0.66666667  0.24387700  1
  P  P16  1  0.00000000  0.00000000  0.42278967  1
  P  P17  1  0.00000000  0.00000000  0.57721033  1
  O  O18  1  0.33333333  0.66666667  0.02676600  1
  O  O19  1  0.66666667  0.33333333  0.97323400  1
  O  O20  1  0.97826917  0.62135633  0.88772133  1
  O  O21  1  0.95468967  0.30975383  0.77894533  1
  O  O22  1  0.35506417  0.04531033  0.77894533  1
  O  O23  1  0.64308717  0.02173083  0.88772133  1
  O  O24  1  0.37864367  0.35691283  0.88772133  1
  O  O25  1  0.69024617  0.64493583  0.77894533  1
  O  O26  1  0.00000000  0.00000000  0.36009933  1
  O  O27  1  0.33333333  0.66666667  0.30656733  1
  O  O28  1  0.64493583  0.95468967  0.22105467  1
  O  O29  1  0.62135633  0.64308717  0.11227867  1
  O  O30  1  0.02173083  0.37864367  0.11227867  1
  O  O31  1  0.30975383  0.35506417  0.22105467  1
  O  O32  1  0.04531033  0.69024617  0.22105467  1
  O  O33  1  0.35691283  0.97826917  0.11227867  1
  O  O34  1  0.66666667  0.33333333  0.69343267  1
  O  O35  1  0.00000000  0.00000000  0.63990067  1
  O  O36  1  0.31160250  0.28802300  0.55438800  1
  O  O37  1  0.28802300  0.97642050  0.44561200  1
  O  O38  1  0.68839750  0.71197700  0.44561200  1
  O  O39  1  0.97642050  0.68839750  0.55438800  1
  O  O40  1  0.71197700  0.02357950  0.55438800  1
  O  O41  1  0.02357950  0.31160250  0.44561200  1
