# generated using pymatgen
data_Eu2SiO5
_symmetry_space_group_name_H-M   'P 1'
_cell_length_a   14.79359200
_cell_length_b   6.96931400
_cell_length_c   10.77885064
_cell_angle_alpha   90.00000000
_cell_angle_beta   122.13026292
_cell_angle_gamma   90.00000000
_symmetry_Int_Tables_number   1
_chemical_formula_structural   Eu2SiO5
_chemical_formula_sum   'Eu16 Si8 O40'
_cell_volume   941.10496194
_cell_formula_units_Z   8
loop_
 _symmetry_equiv_pos_site_id
 _symmetry_equiv_pos_as_xyz
  1  'x, y, z'
loop_
 _atom_site_type_symbol
 _atom_site_label
 _atom_site_symmetry_multiplicity
 _atom_site_fract_x
 _atom_site_fract_y
 _atom_site_fract_z
 _atom_site_occupancy
  Eu  Eu0  1  0.85532850  0.38355050  0.16382400  1
  Eu  Eu1  1  0.03879800  0.74738300  0.46693300  1
  Eu  Eu2  1  0.96120200  0.74738300  0.03306700  1
  Eu  Eu3  1  0.85532850  0.61644950  0.66382400  1
  Eu  Eu4  1  0.14467150  0.38355050  0.33617600  1
  Eu  Eu5  1  0.03879800  0.25261700  0.96693300  1
  Eu  Eu6  1  0.96120200  0.25261700  0.53306700  1
  Eu  Eu7  1  0.14467150  0.61644950  0.83617600  1
  Eu  Eu8  1  0.35532850  0.88355050  0.16382400  1
  Eu  Eu9  1  0.53879800  0.24738300  0.46693300  1
  Eu  Eu10  1  0.46120200  0.24738300  0.03306700  1
  Eu  Eu11  1  0.35532850  0.11644950  0.66382400  1
  Eu  Eu12  1  0.64467150  0.88355050  0.33617600  1
  Eu  Eu13  1  0.53879800  0.75261700  0.96693300  1
  Eu  Eu14  1  0.46120200  0.75261700  0.53306700  1
  Eu  Eu15  1  0.64467150  0.11644950  0.83617600  1
  Si  Si16  1  0.68045350  0.41227950  0.30598800  1
  Si  Si17  1  0.18045350  0.08772050  0.80598800  1
  Si  Si18  1  0.81954650  0.91227950  0.19401200  1
  Si  Si19  1  0.31954650  0.58772050  0.69401200  1
  Si  Si20  1  0.18045350  0.91227950  0.30598800  1
  Si  Si21  1  0.68045350  0.58772050  0.80598800  1
  Si  Si22  1  0.31954650  0.41227950  0.19401200  1
  Si  Si23  1  0.81954650  0.08772050  0.69401200  1
  O  O24  1  0.19952150  0.06799150  0.43273800  1
  O  O25  1  0.59211950  0.49735250  0.14308100  1
  O  O26  1  0.79433500  0.35729400  0.32401400  1
  O  O27  1  0.19952150  0.93200850  0.93273800  1
  O  O28  1  0.09211950  0.00264750  0.64308100  1
  O  O29  1  0.87958100  0.71966500  0.17961000  1
  O  O30  1  0.29433500  0.14270600  0.82401400  1
  O  O31  1  0.01632300  0.40756700  0.39442100  1
  O  O32  1  0.98367700  0.40756700  0.10557900  1
  O  O33  1  0.12041900  0.71966500  0.32039000  1
  O  O34  1  0.87958100  0.28033500  0.67961000  1
  O  O35  1  0.01632300  0.59243300  0.89442100  1
  O  O36  1  0.98367700  0.59243300  0.60557900  1
  O  O37  1  0.70566500  0.85729400  0.17598600  1
  O  O38  1  0.12041900  0.28033500  0.82039000  1
  O  O39  1  0.90788050  0.99735250  0.35691900  1
  O  O40  1  0.80047850  0.06799150  0.06726200  1
  O  O41  1  0.20566500  0.64270600  0.67598600  1
  O  O42  1  0.40788050  0.50264750  0.85691900  1
  O  O43  1  0.80047850  0.93200850  0.56726200  1
  O  O44  1  0.69952150  0.56799150  0.43273800  1
  O  O45  1  0.09211950  0.99735250  0.14308100  1
  O  O46  1  0.29433500  0.85729400  0.32401400  1
  O  O47  1  0.69952150  0.43200850  0.93273800  1
  O  O48  1  0.59211950  0.50264750  0.64308100  1
  O  O49  1  0.37958100  0.21966500  0.17961000  1
  O  O50  1  0.79433500  0.64270600  0.82401400  1
  O  O51  1  0.51632300  0.90756700  0.39442100  1
  O  O52  1  0.48367700  0.90756700  0.10557900  1
  O  O53  1  0.62041900  0.21966500  0.32039000  1
  O  O54  1  0.37958100  0.78033500  0.67961000  1
  O  O55  1  0.51632300  0.09243300  0.89442100  1
  O  O56  1  0.48367700  0.09243300  0.60557900  1
  O  O57  1  0.20566500  0.35729400  0.17598600  1
  O  O58  1  0.62041900  0.78033500  0.82039000  1
  O  O59  1  0.40788050  0.49735250  0.35691900  1
  O  O60  1  0.30047850  0.56799150  0.06726200  1
  O  O61  1  0.70566500  0.14270600  0.67598600  1
  O  O62  1  0.90788050  0.00264750  0.85691900  1
  O  O63  1  0.30047850  0.43200850  0.56726200  1
