# generated using pymatgen
data_Li2FeSi3O8
_symmetry_space_group_name_H-M   'P 1'
_cell_length_a   6.49927800
_cell_length_b   6.72453325
_cell_length_c   9.58357805
_cell_angle_alpha   108.59004741
_cell_angle_beta   98.36250977
_cell_angle_gamma   102.33708434
_symmetry_Int_Tables_number   1
_chemical_formula_structural   Li2FeSi3O8
_chemical_formula_sum   'Li4 Fe2 Si6 O16'
_cell_volume   377.36983809
_cell_formula_units_Z   2
loop_
 _symmetry_equiv_pos_site_id
 _symmetry_equiv_pos_as_xyz
  1  'x, y, z'
loop_
 _atom_site_type_symbol
 _atom_site_label
 _atom_site_symmetry_multiplicity
 _atom_site_fract_x
 _atom_site_fract_y
 _atom_site_fract_z
 _atom_site_occupancy
  Li  Li0  1  0.18843436  0.83440391  0.30824861  1
  Li  Li1  1  0.75242458  0.10601996  0.76715834  1
  Li  Li2  1  0.35327690  0.57484907  0.85857602  1
  Li  Li3  1  0.04596980  0.93268348  0.62598832  1
  Fe  Fe4  1  0.57016318  0.76828218  0.58651189  1
  Fe  Fe5  1  0.30338613  0.07945314  0.90346528  1
  Si  Si6  1  0.12386616  0.29601468  0.10113321  1
  Si  Si7  1  0.39104040  0.23871201  0.41002142  1
  Si  Si8  1  0.79539700  0.91605041  0.09187098  1
  Si  Si9  1  0.16581345  0.37810580  0.59356929  1
  Si  Si10  1  0.78511906  0.60596564  0.40889862  1
  Si  Si11  1  0.94941681  0.71085125  0.91221568  1
  O  O12  1  0.98385877  0.06402409  0.18217943  1
  O  O13  1  0.26194548  0.38227511  0.24251324  1
  O  O14  1  0.28121909  0.27880213  0.00642976  1
  O  O15  1  0.96671818  0.81187233  0.04726762  1
  O  O16  1  0.25907140  0.21139878  0.53915480  1
  O  O17  1  0.93377099  0.44845942  0.99241124  1
  O  O18  1  0.40683263  0.99905431  0.41620861  1
  O  O19  1  0.02766436  0.53971417  0.42942412  1
  O  O20  1  0.62080820  0.03965946  0.94780651  1
  O  O21  1  0.35059900  0.53227537  0.66980980  1
  O  O22  1  0.62265403  0.38037489  0.45917433  1
  O  O23  1  0.73441305  0.79379091  0.78637657  1
  O  O24  1  0.69170274  0.72889961  0.22693120  1
  O  O25  1  0.02800156  0.20876746  0.71112545  1
  O  O26  1  0.81937767  0.75542646  0.51116376  1
  O  O27  1  0.17502402  0.79584592  0.85233093  1
