# generated using pymatgen
data_Na6(NiO2)7
_symmetry_space_group_name_H-M   'P 1'
_cell_length_a   7.80285179
_cell_length_b   7.80285179
_cell_length_c   16.01604277
_cell_angle_alpha   90.00000000
_cell_angle_beta   90.00000000
_cell_angle_gamma   120.00000000
_symmetry_Int_Tables_number   1
_chemical_formula_structural   Na6(NiO2)7
_chemical_formula_sum   'Na18 Ni21 O42'
_cell_volume   844.48621981
_cell_formula_units_Z   3
loop_
 _symmetry_equiv_pos_site_id
 _symmetry_equiv_pos_as_xyz
  1  'x, y, z'
loop_
 _atom_site_type_symbol
 _atom_site_label
 _atom_site_symmetry_multiplicity
 _atom_site_fract_x
 _atom_site_fract_y
 _atom_site_fract_z
 _atom_site_occupancy
  Na  Na0  1  0.38799400  0.91753400  0.33641800  1
  Na  Na1  1  0.13712667  0.72132733  0.99691533  1
  Na  Na2  1  0.08246600  0.47046000  0.33641800  1
  Na  Na3  1  0.58420067  0.86287333  0.99691533  1
  Na  Na4  1  0.52954000  0.61200600  0.33641800  1
  Na  Na5  1  0.27867267  0.41579933  0.99691533  1
  Na  Na6  1  0.05466067  0.25086733  0.66975133  1
  Na  Na7  1  0.80379333  0.05466067  0.33024867  1
  Na  Na8  1  0.74913267  0.80379333  0.66975133  1
  Na  Na9  1  0.25086733  0.19620667  0.33024867  1
  Na  Na10  1  0.19620667  0.94533933  0.66975133  1
  Na  Na11  1  0.94533933  0.74913267  0.33024867  1
  Na  Na12  1  0.72132733  0.58420067  0.00308467  1
  Na  Na13  1  0.47046000  0.38799400  0.66358200  1
  Na  Na14  1  0.41579933  0.13712667  0.00308467  1
  Na  Na15  1  0.91753400  0.52954000  0.66358200  1
  Na  Na16  1  0.86287333  0.27867267  0.00308467  1
  Na  Na17  1  0.61200600  0.08246600  0.66358200  1
  Ni  Ni18  1  0.18869033  0.94685667  0.16565867  1
  Ni  Ni19  1  0.61352333  0.09149967  0.16767467  1
  Ni  Ni20  1  0.90850033  0.52202367  0.16767467  1
  Ni  Ni21  1  0.33333333  0.66666667  0.16666667  1
  Ni  Ni22  1  0.75816633  0.81130967  0.16565867  1
  Ni  Ni23  1  0.05314333  0.24183367  0.16565867  1
  Ni  Ni24  1  0.47797633  0.38647667  0.16767467  1
  Ni  Ni25  1  0.85535700  0.28019000  0.49899200  1
  Ni  Ni26  1  0.28019000  0.42483300  0.50100800  1
  Ni  Ni27  1  0.57516700  0.85535700  0.50100800  1
  Ni  Ni28  1  1.00000000  0.00000000  0.50000000  1
  Ni  Ni29  1  0.42483300  0.14464300  0.49899200  1
  Ni  Ni30  1  0.71981000  0.57516700  0.49899200  1
  Ni  Ni31  1  0.14464300  0.71981000  0.50100800  1
  Ni  Ni32  1  0.52202367  0.61352333  0.83232533  1
  Ni  Ni33  1  0.94685667  0.75816633  0.83434133  1
  Ni  Ni34  1  0.24183367  0.18869033  0.83434133  1
  Ni  Ni35  1  0.66666667  0.33333333  0.83333333  1
  Ni  Ni36  1  0.09149967  0.47797633  0.83232533  1
  Ni  Ni37  1  0.38647667  0.90850033  0.83232533  1
  Ni  Ni38  1  0.81130967  0.05314333  0.83434133  1
  O  O39  1  0.96051833  0.75444867  0.10564767  1
  O  O40  1  0.42111533  0.12726367  0.22768567  1
  O  O41  1  0.36720667  0.88588533  0.10110433  1
  O  O42  1  0.14798800  0.70054000  0.23222900  1
  O  O43  1  0.33333333  0.66666667  0.89714167  1
  O  O44  1  0.55255200  0.85201200  0.23222900  1
  O  O45  1  0.11411467  0.48132133  0.10110433  1
  O  O46  1  0.87273633  0.29385167  0.22768567  1
  O  O47  1  0.79393033  0.03948167  0.10564767  1
  O  O48  1  0.33333333  0.66666667  0.43619167  1
  O  O49  1  0.29946000  0.44744800  0.23222900  1
  O  O50  1  0.51867867  0.63279333  0.10110433  1
  O  O51  1  0.24555133  0.20606967  0.10564767  1
  O  O52  1  0.70614833  0.57888467  0.22768567  1
  O  O53  1  0.62718500  0.08778200  0.43898100  1
  O  O54  1  0.08778200  0.46059700  0.56101900  1
  O  O55  1  0.03387333  0.21921867  0.43443767  1
  O  O56  1  0.81465467  0.03387333  0.56556233  1
  O  O57  1  0.00000000  0.00000000  0.23047500  1
  O  O58  1  0.21921867  0.18534533  0.56556233  1
  O  O59  1  0.78078133  0.81465467  0.43443767  1
  O  O60  1  0.53940300  0.62718500  0.56101900  1
  O  O61  1  0.46059700  0.37281500  0.43898100  1
  O  O62  1  0.00000000  0.00000000  0.76952500  1
  O  O63  1  0.96612667  0.78078133  0.56556233  1
  O  O64  1  0.18534533  0.96612667  0.43443767  1
  O  O65  1  0.91221800  0.53940300  0.43898100  1
  O  O66  1  0.37281500  0.91221800  0.56101900  1
  O  O67  1  0.29385167  0.42111533  0.77231433  1
  O  O68  1  0.75444867  0.79393033  0.89435233  1
  O  O69  1  0.70054000  0.55255200  0.76777100  1
  O  O70  1  0.48132133  0.36720667  0.89889567  1
  O  O71  1  0.66666667  0.33333333  0.56380833  1
  O  O72  1  0.88588533  0.51867867  0.89889567  1
  O  O73  1  0.44744800  0.14798800  0.76777100  1
  O  O74  1  0.20606967  0.96051833  0.89435233  1
  O  O75  1  0.12726367  0.70614833  0.77231433  1
  O  O76  1  0.66666667  0.33333333  0.10285833  1
  O  O77  1  0.63279333  0.11411467  0.89889567  1
  O  O78  1  0.85201200  0.29946000  0.76777100  1
  O  O79  1  0.57888467  0.87273633  0.77231433  1
  O  O80  1  0.03948167  0.24555133  0.89435233  1
