# generated using pymatgen
data_Li3Cr3FeO8
_symmetry_space_group_name_H-M   'P 1'
_cell_length_a   5.88414598
_cell_length_b   5.88414598
_cell_length_c   14.66150421
_cell_angle_alpha   90.00000000
_cell_angle_beta   90.00000000
_cell_angle_gamma   120.00000000
_symmetry_Int_Tables_number   1
_chemical_formula_structural   Li3Cr3FeO8
_chemical_formula_sum   'Li9 Cr9 Fe3 O24'
_cell_volume   439.61857866
_cell_formula_units_Z   3
loop_
 _symmetry_equiv_pos_site_id
 _symmetry_equiv_pos_as_xyz
  1  'x, y, z'
loop_
 _atom_site_type_symbol
 _atom_site_label
 _atom_site_symmetry_multiplicity
 _atom_site_fract_x
 _atom_site_fract_y
 _atom_site_fract_z
 _atom_site_occupancy
  Li  Li0  1  0.83333333  0.66666667  0.16666667  1
  Li  Li1  1  0.83333333  0.16666667  0.16666667  1
  Li  Li2  1  0.33333333  0.16666667  0.16666667  1
  Li  Li3  1  0.50000000  0.00000000  0.50000000  1
  Li  Li4  1  0.50000000  0.50000000  0.50000000  1
  Li  Li5  1  0.00000000  0.50000000  0.50000000  1
  Li  Li6  1  0.16666667  0.33333333  0.83333333  1
  Li  Li7  1  0.16666667  0.83333333  0.83333333  1
  Li  Li8  1  0.66666667  0.83333333  0.83333333  1
  Cr  Cr9  1  0.50000000  0.00000000  0.00000000  1
  Cr  Cr10  1  0.50000000  0.50000000  0.00000000  1
  Cr  Cr11  1  0.00000000  0.50000000  0.00000000  1
  Cr  Cr12  1  0.16666667  0.33333333  0.33333333  1
  Cr  Cr13  1  0.16666667  0.83333333  0.33333333  1
  Cr  Cr14  1  0.66666667  0.83333333  0.33333333  1
  Cr  Cr15  1  0.83333333  0.66666667  0.66666667  1
  Cr  Cr16  1  0.83333333  0.16666667  0.66666667  1
  Cr  Cr17  1  0.33333333  0.16666667  0.66666667  1
  Fe  Fe18  1  0.00000000  0.00000000  0.00000000  1
  Fe  Fe19  1  0.66666667  0.33333333  0.33333333  1
  Fe  Fe20  1  0.33333333  0.66666667  0.66666667  1
  O  O21  1  0.66666667  0.33333333  0.07448433  1
  O  O22  1  0.15726767  0.31453533  0.07158433  1
  O  O23  1  0.15726767  0.84273233  0.07158433  1
  O  O24  1  0.00000000  0.00000000  0.25884900  1
  O  O25  1  0.68546467  0.84273233  0.07158433  1
  O  O26  1  0.50939900  0.01879800  0.26174900  1
  O  O27  1  0.50939900  0.49060100  0.26174900  1
  O  O28  1  0.98120200  0.49060100  0.26174900  1
  O  O29  1  0.33333333  0.66666667  0.40781767  1
  O  O30  1  0.82393433  0.64786867  0.40491767  1
  O  O31  1  0.82393433  0.17606567  0.40491767  1
  O  O32  1  0.66666667  0.33333333  0.59218233  1
  O  O33  1  0.35213133  0.17606567  0.40491767  1
  O  O34  1  0.17606567  0.35213133  0.59508233  1
  O  O35  1  0.17606567  0.82393433  0.59508233  1
  O  O36  1  0.64786867  0.82393433  0.59508233  1
  O  O37  1  0.00000000  0.00000000  0.74115100  1
  O  O38  1  0.49060100  0.98120200  0.73825100  1
  O  O39  1  0.49060100  0.50939900  0.73825100  1
  O  O40  1  0.33333333  0.66666667  0.92551567  1
  O  O41  1  0.01879800  0.50939900  0.73825100  1
  O  O42  1  0.84273233  0.68546467  0.92841567  1
  O  O43  1  0.84273233  0.15726767  0.92841567  1
  O  O44  1  0.31453533  0.15726767  0.92841567  1
