# generated using pymatgen
data_Li5Mn4O8
_symmetry_space_group_name_H-M   'P 1'
_cell_length_a   5.81019000
_cell_length_b   11.24400000
_cell_length_c   10.08675300
_cell_angle_alpha   90.00000000
_cell_angle_beta   90.00000000
_cell_angle_gamma   90.00000000
_symmetry_Int_Tables_number   1
_chemical_formula_structural   Li5Mn4O8
_chemical_formula_sum   'Li20 Mn16 O32'
_cell_volume   658.96531769
_cell_formula_units_Z   4
loop_
 _symmetry_equiv_pos_site_id
 _symmetry_equiv_pos_as_xyz
  1  'x, y, z'
loop_
 _atom_site_type_symbol
 _atom_site_label
 _atom_site_symmetry_multiplicity
 _atom_site_fract_x
 _atom_site_fract_y
 _atom_site_fract_z
 _atom_site_occupancy
  Li  Li0  1  0.71885150  0.40592550  0.93902900  1
  Li  Li1  1  0.50000000  0.34160600  0.72650000  1
  Li  Li2  1  0.50000000  0.20722500  0.94080300  1
  Li  Li3  1  0.28114850  0.40592550  0.93902900  1
  Li  Li4  1  0.21885150  0.09407450  0.43902900  1
  Li  Li5  1  0.00000000  0.15839400  0.22650000  1
  Li  Li6  1  0.78114850  0.09407450  0.43902900  1
  Li  Li7  1  0.00000000  0.29277500  0.44080300  1
  Li  Li8  1  0.50000000  0.02724800  0.01852400  1
  Li  Li9  1  0.00000000  0.47275200  0.51852400  1
  Li  Li10  1  0.21885150  0.90592550  0.93902900  1
  Li  Li11  1  0.00000000  0.84160600  0.72650000  1
  Li  Li12  1  0.00000000  0.70722500  0.94080300  1
  Li  Li13  1  0.78114850  0.90592550  0.93902900  1
  Li  Li14  1  0.71885150  0.59407450  0.43902900  1
  Li  Li15  1  0.50000000  0.65839400  0.22650000  1
  Li  Li16  1  0.28114850  0.59407450  0.43902900  1
  Li  Li17  1  0.50000000  0.79277500  0.44080300  1
  Li  Li18  1  0.00000000  0.52724800  0.01852400  1
  Li  Li19  1  0.50000000  0.97275200  0.51852400  1
  Mn  Mn20  1  0.50000000  0.31955800  0.47294200  1
  Mn  Mn21  1  0.00000000  0.18044200  0.97294200  1
  Mn  Mn22  1  0.50000000  0.17748100  0.21297800  1
  Mn  Mn23  1  0.74886200  0.41977900  0.21540200  1
  Mn  Mn24  1  0.25113800  0.41977900  0.21540200  1
  Mn  Mn25  1  0.24886200  0.08022100  0.71540200  1
  Mn  Mn26  1  0.75113800  0.08022100  0.71540200  1
  Mn  Mn27  1  0.00000000  0.32251900  0.71297800  1
  Mn  Mn28  1  0.00000000  0.81955800  0.47294200  1
  Mn  Mn29  1  0.50000000  0.68044200  0.97294200  1
  Mn  Mn30  1  0.00000000  0.67748100  0.21297800  1
  Mn  Mn31  1  0.24886200  0.91977900  0.21540200  1
  Mn  Mn32  1  0.75113800  0.91977900  0.21540200  1
  Mn  Mn33  1  0.74886200  0.58022100  0.71540200  1
  Mn  Mn34  1  0.25113800  0.58022100  0.71540200  1
  Mn  Mn35  1  0.50000000  0.82251900  0.71297800  1
  O  O36  1  0.50000000  0.12958700  0.59262400  1
  O  O37  1  0.73996450  0.24024750  0.33350400  1
  O  O38  1  0.76323500  0.38695300  0.59478300  1
  O  O39  1  0.50000000  0.36326600  0.09642900  1
  O  O40  1  0.26003550  0.24024750  0.33350400  1
  O  O41  1  0.50000000  0.48583700  0.32811700  1
  O  O42  1  0.26323500  0.11304700  0.09478300  1
  O  O43  1  0.23676500  0.38695300  0.59478300  1
  O  O44  1  0.00000000  0.01416300  0.82811700  1
  O  O45  1  0.23996450  0.25975250  0.83350400  1
  O  O46  1  0.00000000  0.13673400  0.59642900  1
  O  O47  1  0.73676500  0.11304700  0.09478300  1
  O  O48  1  0.76003550  0.25975250  0.83350400  1
  O  O49  1  0.00000000  0.37041300  0.09262400  1
  O  O50  1  0.50000000  0.01793100  0.82890500  1
  O  O51  1  0.00000000  0.48206900  0.32890500  1
  O  O52  1  0.00000000  0.62958700  0.59262400  1
  O  O53  1  0.23996450  0.74024750  0.33350400  1
  O  O54  1  0.26323500  0.88695300  0.59478300  1
  O  O55  1  0.00000000  0.86326600  0.09642900  1
  O  O56  1  0.76003550  0.74024750  0.33350400  1
  O  O57  1  0.00000000  0.98583700  0.32811700  1
  O  O58  1  0.76323500  0.61304700  0.09478300  1
  O  O59  1  0.73676500  0.88695300  0.59478300  1
  O  O60  1  0.50000000  0.51416300  0.82811700  1
  O  O61  1  0.73996450  0.75975250  0.83350400  1
  O  O62  1  0.50000000  0.63673400  0.59642900  1
  O  O63  1  0.23676500  0.61304700  0.09478300  1
  O  O64  1  0.26003550  0.75975250  0.83350400  1
  O  O65  1  0.50000000  0.87041300  0.09262400  1
  O  O66  1  0.00000000  0.51793100  0.82890500  1
  O  O67  1  0.50000000  0.98206900  0.32890500  1
