# generated using pymatgen
data_MnV3Cu2(PO4)6
_symmetry_space_group_name_H-M   'P 1'
_cell_length_a   8.58775429
_cell_length_b   8.58775429
_cell_length_c   20.96213494
_cell_angle_alpha   90.00000000
_cell_angle_beta   90.00000000
_cell_angle_gamma   120.00000000
_symmetry_Int_Tables_number   1
_chemical_formula_structural   MnV3Cu2(PO4)6
_chemical_formula_sum   'Mn3 V9 Cu6 P18 O72'
_cell_volume   1338.82978069
_cell_formula_units_Z   3
loop_
 _symmetry_equiv_pos_site_id
 _symmetry_equiv_pos_as_xyz
  1  'x, y, z'
loop_
 _atom_site_type_symbol
 _atom_site_label
 _atom_site_symmetry_multiplicity
 _atom_site_fract_x
 _atom_site_fract_y
 _atom_site_fract_z
 _atom_site_occupancy
  Mn  Mn0  1  0.00000000  0.00000000  0.14279800  1
  Mn  Mn1  1  0.66666667  0.33333333  0.47613133  1
  Mn  Mn2  1  0.33333333  0.66666667  0.80946467  1
  V  V3  1  0.00000000  0.00000000  0.64283500  1
  V  V4  1  0.00000000  0.00000000  0.85782333  1
  V  V5  1  0.00000000  0.00000000  0.35754500  1
  V  V6  1  0.66666667  0.33333333  0.97616833  1
  V  V7  1  0.66666667  0.33333333  0.19115667  1
  V  V8  1  0.66666667  0.33333333  0.69087833  1
  V  V9  1  0.33333333  0.66666667  0.30950167  1
  V  V10  1  0.33333333  0.66666667  0.52449000  1
  V  V11  1  0.33333333  0.66666667  0.02421167  1
  Cu  Cu12  1  0.00000000  0.00000000  0.00023100  1
  Cu  Cu13  1  0.00000000  0.00000000  0.50046900  1
  Cu  Cu14  1  0.66666667  0.33333333  0.33356433  1
  Cu  Cu15  1  0.66666667  0.33333333  0.83380233  1
  Cu  Cu16  1  0.33333333  0.66666667  0.66689767  1
  Cu  Cu17  1  0.33333333  0.66666667  0.16713567  1
  P  P18  1  0.66639600  0.04178500  0.58327300  1
  P  P19  1  0.37538900  0.33360400  0.58327300  1
  P  P20  1  0.95821500  0.62461100  0.58327300  1
  P  P21  1  0.04269500  0.37600800  0.41617500  1
  P  P22  1  0.62399200  0.66668700  0.41617500  1
  P  P23  1  0.33331300  0.95730500  0.41617500  1
  P  P24  1  0.33306267  0.37511833  0.91660633  1
  P  P25  1  0.04205567  0.66693733  0.91660633  1
  P  P26  1  0.62488167  0.95794433  0.91660633  1
  P  P27  1  0.70936167  0.70934133  0.74950833  1
  P  P28  1  0.29065867  0.00002033  0.74950833  1
  P  P29  1  0.99997967  0.29063833  0.74950833  1
  P  P30  1  0.99972933  0.70845167  0.24993967  1
  P  P31  1  0.70872233  0.00027067  0.24993967  1
  P  P32  1  0.29154833  0.29127767  0.24993967  1
  P  P33  1  0.37602833  0.04267467  0.08284167  1
  P  P34  1  0.95732533  0.33335367  0.08284167  1
  P  P35  1  0.66664633  0.62397167  0.08284167  1
  O  O36  1  0.81228767  0.00588833  0.31097533  1
  O  O37  1  0.19360067  0.18771233  0.31097533  1
  O  O38  1  0.99411167  0.80639933  0.31097533  1
  O  O39  1  0.49516267  0.85018233  0.58738533  1
  O  O40  1  0.67326467  0.13786933  0.52225033  1
  O  O41  1  0.83538700  0.01814700  0.58230500  1
  O  O42  1  0.35501967  0.50483733  0.58738533  1
  O  O43  1  0.18276000  0.16461300  0.58230500  1
  O  O44  1  0.14451833  0.47356667  0.47747967  1
  O  O45  1  0.98185300  0.81724000  0.58230500  1
  O  O46  1  0.85616867  0.35981333  0.41024133  1
  O  O47  1  0.52643333  0.67095167  0.47747967  1
  O  O48  1  0.46460467  0.32673533  0.52225033  1
  O  O49  1  0.14981767  0.64498033  0.58738533  1
  O  O50  1  0.02486267  0.18586333  0.41995233  1
  O  O51  1  0.86213067  0.53539533  0.52225033  1
  O  O52  1  0.81413667  0.83899933  0.41995233  1
  O  O53  1  0.64018667  0.49635533  0.41024133  1
  O  O54  1  0.16100067  0.97513733  0.41995233  1
  O  O55  1  0.32904833  0.85548167  0.47747967  1
  O  O56  1  0.50364467  0.14383133  0.41024133  1
  O  O57  1  0.99714667  0.18724033  0.68938733  1
  O  O58  1  0.81275967  0.80990633  0.68938733  1
  O  O59  1  0.19009367  0.00285333  0.68938733  1
  O  O60  1  0.47895433  0.33922167  0.64430867  1
  O  O61  1  0.86026733  0.52104567  0.64430867  1
  O  O62  1  0.66077833  0.13973267  0.64430867  1
  O  O63  1  0.16182933  0.18351567  0.92071867  1
  O  O64  1  0.33993133  0.47120267  0.85558367  1
  O  O65  1  0.50205367  0.35148033  0.91563833  1
  O  O66  1  0.02168633  0.83817067  0.92071867  1
  O  O67  1  0.84942667  0.49794633  0.91563833  1
  O  O68  1  0.81118500  0.80690000  0.81081300  1
  O  O69  1  0.64851967  0.15057333  0.91563833  1
  O  O70  1  0.52283533  0.69314667  0.74357467  1
  O  O71  1  0.19310000  0.00428500  0.81081300  1
  O  O72  1  0.13127133  0.66006867  0.85558367  1
  O  O73  1  0.81648433  0.97831367  0.92071867  1
  O  O74  1  0.69152933  0.51919667  0.75328567  1
  O  O75  1  0.52879733  0.86872867  0.85558367  1
  O  O76  1  0.48080333  0.17233267  0.75328567  1
  O  O77  1  0.30685333  0.82968867  0.74357467  1
  O  O78  1  0.82766733  0.30847067  0.75328567  1
  O  O79  1  0.99571500  0.18881500  0.81081300  1
  O  O80  1  0.17031133  0.47716467  0.74357467  1
  O  O81  1  0.66381333  0.52057367  0.02272067  1
  O  O82  1  0.47942633  0.14323967  0.02272067  1
  O  O83  1  0.85676033  0.33618667  0.02272067  1
  O  O84  1  0.14562100  0.67255500  0.97764200  1
  O  O85  1  0.52693400  0.85437900  0.97764200  1
  O  O86  1  0.32744500  0.47306600  0.97764200  1
  O  O87  1  0.82849600  0.51684900  0.25405200  1
  O  O88  1  0.00659800  0.80453600  0.18891700  1
  O  O89  1  0.16872033  0.68481367  0.24897167  1
  O  O90  1  0.68835300  0.17150400  0.25405200  1
  O  O91  1  0.51609333  0.83127967  0.24897167  1
  O  O92  1  0.47785167  0.14023333  0.14414633  1
  O  O93  1  0.31518633  0.48390667  0.24897167  1
  O  O94  1  0.18950200  0.02648000  0.07690800  1
  O  O95  1  0.85976667  0.33761833  0.14414633  1
  O  O96  1  0.79793800  0.99340200  0.18891700  1
  O  O97  1  0.48315100  0.31164700  0.25405200  1
  O  O98  1  0.35819600  0.85253000  0.08661900  1
  O  O99  1  0.19546400  0.20206200  0.18891700  1
  O  O100  1  0.14747000  0.50566600  0.08661900  1
  O  O101  1  0.97352000  0.16302200  0.07690800  1
  O  O102  1  0.49433400  0.64180400  0.08661900  1
  O  O103  1  0.66238167  0.52214833  0.14414633  1
  O  O104  1  0.83697800  0.81049800  0.07690800  1
  O  O105  1  0.33048000  0.85390700  0.35605400  1
  O  O106  1  0.14609300  0.47657300  0.35605400  1
  O  O107  1  0.52342700  0.66952000  0.35605400  1
