# generated using pymatgen
data_Li2Si2NiO6
_symmetry_space_group_name_H-M   'P 1'
_cell_length_a   6.33097600
_cell_length_b   21.80136200
_cell_length_c   22.36697400
_cell_angle_alpha   90.00000000
_cell_angle_beta   90.00000000
_cell_angle_gamma   90.00000000
_symmetry_Int_Tables_number   1
_chemical_formula_structural   Li2Si2NiO6
_chemical_formula_sum   'Li48 Si48 Ni24 O144'
_cell_volume   3087.17697349
_cell_formula_units_Z   24
loop_
 _symmetry_equiv_pos_site_id
 _symmetry_equiv_pos_as_xyz
  1  'x, y, z'
loop_
 _atom_site_type_symbol
 _atom_site_label
 _atom_site_symmetry_multiplicity
 _atom_site_fract_x
 _atom_site_fract_y
 _atom_site_fract_z
 _atom_site_occupancy
  Li  Li0  1  0.75000000  0.75000000  0.87705000  1
  Li  Li1  1  0.25000000  0.75000000  0.99791200  1
  Li  Li2  1  0.49778650  0.67806450  0.71331100  1
  Li  Li3  1  0.98877300  0.63976300  0.56912700  1
  Li  Li4  1  0.23877300  0.61023700  0.81912700  1
  Li  Li5  1  0.74778650  0.57193550  0.96331100  1
  Li  Li6  1  0.00000000  0.50000000  0.74791200  1
  Li  Li7  1  0.50000000  0.50000000  0.62705000  1
  Li  Li8  1  0.75221350  0.92806450  0.96331100  1
  Li  Li9  1  0.26122700  0.88976300  0.81912700  1
  Li  Li10  1  0.51122700  0.86023700  0.56912700  1
  Li  Li11  1  0.00221350  0.82193550  0.71331100  1
  Li  Li12  1  0.75000000  0.25000000  0.37705000  1
  Li  Li13  1  0.25000000  0.25000000  0.49791200  1
  Li  Li14  1  0.49778650  0.17806450  0.21331100  1
  Li  Li15  1  0.98877300  0.13976300  0.06912700  1
  Li  Li16  1  0.23877300  0.11023700  0.31912700  1
  Li  Li17  1  0.74778650  0.07193550  0.46331100  1
  Li  Li18  1  0.00000000  0.00000000  0.24791200  1
  Li  Li19  1  0.50000000  0.00000000  0.12705000  1
  Li  Li20  1  0.75221350  0.42806450  0.46331100  1
  Li  Li21  1  0.26122700  0.38976300  0.31912700  1
  Li  Li22  1  0.51122700  0.36023700  0.06912700  1
  Li  Li23  1  0.00221350  0.32193550  0.21331100  1
  Li  Li24  1  0.25000000  0.75000000  0.37705000  1
  Li  Li25  1  0.75000000  0.75000000  0.49791200  1
  Li  Li26  1  0.99778650  0.67806450  0.21331100  1
  Li  Li27  1  0.48877300  0.63976300  0.06912700  1
  Li  Li28  1  0.73877300  0.61023700  0.31912700  1
  Li  Li29  1  0.24778650  0.57193550  0.46331100  1
  Li  Li30  1  0.50000000  0.50000000  0.24791200  1
  Li  Li31  1  0.00000000  0.50000000  0.12705000  1
  Li  Li32  1  0.25221350  0.92806450  0.46331100  1
  Li  Li33  1  0.76122700  0.88976300  0.31912700  1
  Li  Li34  1  0.01122700  0.86023700  0.06912700  1
  Li  Li35  1  0.50221350  0.82193550  0.21331100  1
  Li  Li36  1  0.25000000  0.25000000  0.87705000  1
  Li  Li37  1  0.75000000  0.25000000  0.99791200  1
  Li  Li38  1  0.99778650  0.17806450  0.71331100  1
  Li  Li39  1  0.48877300  0.13976300  0.56912700  1
  Li  Li40  1  0.73877300  0.11023700  0.81912700  1
  Li  Li41  1  0.24778650  0.07193550  0.96331100  1
  Li  Li42  1  0.50000000  0.00000000  0.74791200  1
  Li  Li43  1  0.00000000  0.00000000  0.62705000  1
  Li  Li44  1  0.25221350  0.42806450  0.96331100  1
  Li  Li45  1  0.76122700  0.38976300  0.81912700  1
  Li  Li46  1  0.01122700  0.36023700  0.56912700  1
  Li  Li47  1  0.50221350  0.32193550  0.71331100  1
  Si  Si48  1  0.25000000  0.75000000  0.84101600  1
  Si  Si49  1  0.25000000  0.75000000  0.50663600  1
  Si  Si50  1  0.99471150  0.69639150  0.74459700  1
  Si  Si51  1  0.50291500  0.64622150  0.56799050  1
  Si  Si52  1  0.75291500  0.60377850  0.81799050  1
  Si  Si53  1  0.24471150  0.55360850  0.99459700  1
  Si  Si54  1  0.00000000  0.50000000  0.59101600  1
  Si  Si55  1  0.50000000  0.50000000  0.75663600  1
  Si  Si56  1  0.25528850  0.94639150  0.99459700  1
  Si  Si57  1  0.74708500  0.89622150  0.81799050  1
  Si  Si58  1  0.99708500  0.85377850  0.56799050  1
  Si  Si59  1  0.50528850  0.80360850  0.74459700  1
  Si  Si60  1  0.25000000  0.25000000  0.34101600  1
  Si  Si61  1  0.25000000  0.25000000  0.00663600  1
  Si  Si62  1  0.99471150  0.19639150  0.24459700  1
  Si  Si63  1  0.50291500  0.14622150  0.06799050  1
  Si  Si64  1  0.75291500  0.10377850  0.31799050  1
  Si  Si65  1  0.24471150  0.05360850  0.49459700  1
  Si  Si66  1  0.00000000  0.00000000  0.09101600  1
  Si  Si67  1  0.50000000  0.00000000  0.25663600  1
  Si  Si68  1  0.25528850  0.44639150  0.49459700  1
  Si  Si69  1  0.74708500  0.39622150  0.31799050  1
  Si  Si70  1  0.99708500  0.35377850  0.06799050  1
  Si  Si71  1  0.50528850  0.30360850  0.24459700  1
  Si  Si72  1  0.75000000  0.75000000  0.34101600  1
  Si  Si73  1  0.75000000  0.75000000  0.00663600  1
  Si  Si74  1  0.49471150  0.69639150  0.24459700  1
  Si  Si75  1  0.00291500  0.64622150  0.06799050  1
  Si  Si76  1  0.25291500  0.60377850  0.31799050  1
  Si  Si77  1  0.74471150  0.55360850  0.49459700  1
  Si  Si78  1  0.50000000  0.50000000  0.09101600  1
  Si  Si79  1  0.00000000  0.50000000  0.25663600  1
  Si  Si80  1  0.75528850  0.94639150  0.49459700  1
  Si  Si81  1  0.24708500  0.89622150  0.31799050  1
  Si  Si82  1  0.49708500  0.85377850  0.06799050  1
  Si  Si83  1  0.00528850  0.80360850  0.24459700  1
  Si  Si84  1  0.75000000  0.25000000  0.84101600  1
  Si  Si85  1  0.75000000  0.25000000  0.50663600  1
  Si  Si86  1  0.49471150  0.19639150  0.74459700  1
  Si  Si87  1  0.00291500  0.14622150  0.56799050  1
  Si  Si88  1  0.25291500  0.10377850  0.81799050  1
  Si  Si89  1  0.74471150  0.05360850  0.99459700  1
  Si  Si90  1  0.50000000  0.00000000  0.59101600  1
  Si  Si91  1  0.00000000  0.00000000  0.75663600  1
  Si  Si92  1  0.75528850  0.44639150  0.99459700  1
  Si  Si93  1  0.24708500  0.39622150  0.81799050  1
  Si  Si94  1  0.49708500  0.35377850  0.56799050  1
  Si  Si95  1  0.00528850  0.30360850  0.74459700  1
  Ni  Ni96  1  0.75000000  0.75000000  0.62614600  1
  Ni  Ni97  1  0.46886950  0.65834550  0.92887000  1
  Ni  Ni98  1  0.21886950  0.59165450  0.67887000  1
  Ni  Ni99  1  0.00000000  0.50000000  0.87614600  1
  Ni  Ni100  1  0.28113050  0.90834550  0.67887000  1
  Ni  Ni101  1  0.03113050  0.84165450  0.92887000  1
  Ni  Ni102  1  0.75000000  0.25000000  0.12614600  1
  Ni  Ni103  1  0.46886950  0.15834550  0.42887000  1
  Ni  Ni104  1  0.21886950  0.09165450  0.17887000  1
  Ni  Ni105  1  0.00000000  0.00000000  0.37614600  1
  Ni  Ni106  1  0.28113050  0.40834550  0.17887000  1
  Ni  Ni107  1  0.03113050  0.34165450  0.42887000  1
  Ni  Ni108  1  0.25000000  0.75000000  0.12614600  1
  Ni  Ni109  1  0.96886950  0.65834550  0.42887000  1
  Ni  Ni110  1  0.71886950  0.59165450  0.17887000  1
  Ni  Ni111  1  0.50000000  0.50000000  0.37614600  1
  Ni  Ni112  1  0.78113050  0.90834550  0.17887000  1
  Ni  Ni113  1  0.53113050  0.84165450  0.42887000  1
  Ni  Ni114  1  0.25000000  0.25000000  0.62614600  1
  Ni  Ni115  1  0.96886950  0.15834550  0.92887000  1
  Ni  Ni116  1  0.71886950  0.09165450  0.67887000  1
  Ni  Ni117  1  0.50000000  0.00000000  0.87614600  1
  Ni  Ni118  1  0.78113050  0.40834550  0.67887000  1
  Ni  Ni119  1  0.53113050  0.34165450  0.92887000  1
  O  O120  1  0.02699700  0.74610950  0.80072350  1
  O  O121  1  0.54203100  0.73768250  0.96568850  1
  O  O122  1  0.96543800  0.73587950  0.68450350  1
  O  O123  1  0.71749400  0.68755100  0.56381800  1
  O  O124  1  0.28796100  0.68795250  0.55037650  1
  O  O125  1  0.25732900  0.68429600  0.87466400  1
  O  O126  1  0.77712000  0.65591950  0.76247950  1
  O  O127  1  0.72115500  0.63406050  0.88370650  1
  O  O128  1  0.20770800  0.65384250  0.74255550  1
  O  O129  1  0.45770800  0.59615750  0.99255550  1
  O  O130  1  0.47115500  0.61593950  0.63370650  1
  O  O131  1  0.52712000  0.59408050  0.51247950  1
  O  O132  1  0.00732900  0.56570400  0.62466400  1
  O  O133  1  0.53796100  0.56204750  0.80037650  1
  O  O134  1  0.96749400  0.56244900  0.81381800  1
  O  O135  1  0.21543800  0.51412050  0.93450350  1
  O  O136  1  0.29203100  0.51231750  0.71568850  1
  O  O137  1  0.77699700  0.50389050  0.55072350  1
  O  O138  1  0.72300300  0.99610950  0.55072350  1
  O  O139  1  0.20796900  0.98768250  0.71568850  1
  O  O140  1  0.28456200  0.98587950  0.93450350  1
  O  O141  1  0.53250600  0.93755100  0.81381800  1
  O  O142  1  0.96203900  0.93795250  0.80037650  1
  O  O143  1  0.49267100  0.93429600  0.62466400  1
  O  O144  1  0.97288000  0.90591950  0.51247950  1
  O  O145  1  0.02884500  0.88406050  0.63370650  1
  O  O146  1  0.04229200  0.90384250  0.99255550  1
  O  O147  1  0.29229200  0.84615750  0.74255550  1
  O  O148  1  0.77884500  0.86593950  0.88370650  1
  O  O149  1  0.72288000  0.84408050  0.76247950  1
  O  O150  1  0.24267100  0.81570400  0.87466400  1
  O  O151  1  0.21203900  0.81204750  0.55037650  1
  O  O152  1  0.78250600  0.81244900  0.56381800  1
  O  O153  1  0.53456200  0.76412050  0.68450350  1
  O  O154  1  0.95796900  0.76231750  0.96568850  1
  O  O155  1  0.47300300  0.75389050  0.80072350  1
  O  O156  1  0.02699700  0.24610950  0.30072350  1
  O  O157  1  0.54203100  0.23768250  0.46568850  1
  O  O158  1  0.96543800  0.23587950  0.18450350  1
  O  O159  1  0.71749400  0.18755100  0.06381800  1
  O  O160  1  0.28796100  0.18795250  0.05037650  1
  O  O161  1  0.25732900  0.18429600  0.37466400  1
  O  O162  1  0.77712000  0.15591950  0.26247950  1
  O  O163  1  0.72115500  0.13406050  0.38370650  1
  O  O164  1  0.20770800  0.15384250  0.24255550  1
  O  O165  1  0.45770800  0.09615750  0.49255550  1
  O  O166  1  0.47115500  0.11593950  0.13370650  1
  O  O167  1  0.52712000  0.09408050  0.01247950  1
  O  O168  1  0.00732900  0.06570400  0.12466400  1
  O  O169  1  0.53796100  0.06204750  0.30037650  1
  O  O170  1  0.96749400  0.06244900  0.31381800  1
  O  O171  1  0.21543800  0.01412050  0.43450350  1
  O  O172  1  0.29203100  0.01231750  0.21568850  1
  O  O173  1  0.77699700  0.00389050  0.05072350  1
  O  O174  1  0.72300300  0.49610950  0.05072350  1
  O  O175  1  0.20796900  0.48768250  0.21568850  1
  O  O176  1  0.28456200  0.48587950  0.43450350  1
  O  O177  1  0.53250600  0.43755100  0.31381800  1
  O  O178  1  0.96203900  0.43795250  0.30037650  1
  O  O179  1  0.49267100  0.43429600  0.12466400  1
  O  O180  1  0.97288000  0.40591950  0.01247950  1
  O  O181  1  0.02884500  0.38406050  0.13370650  1
  O  O182  1  0.04229200  0.40384250  0.49255550  1
  O  O183  1  0.29229200  0.34615750  0.24255550  1
  O  O184  1  0.77884500  0.36593950  0.38370650  1
  O  O185  1  0.72288000  0.34408050  0.26247950  1
  O  O186  1  0.24267100  0.31570400  0.37466400  1
  O  O187  1  0.21203900  0.31204750  0.05037650  1
  O  O188  1  0.78250600  0.31244900  0.06381800  1
  O  O189  1  0.53456200  0.26412050  0.18450350  1
  O  O190  1  0.95796900  0.26231750  0.46568850  1
  O  O191  1  0.47300300  0.25389050  0.30072350  1
  O  O192  1  0.52699700  0.74610950  0.30072350  1
  O  O193  1  0.04203100  0.73768250  0.46568850  1
  O  O194  1  0.46543800  0.73587950  0.18450350  1
  O  O195  1  0.21749400  0.68755100  0.06381800  1
  O  O196  1  0.78796100  0.68795250  0.05037650  1
  O  O197  1  0.75732900  0.68429600  0.37466400  1
  O  O198  1  0.27712000  0.65591950  0.26247950  1
  O  O199  1  0.22115500  0.63406050  0.38370650  1
  O  O200  1  0.70770800  0.65384250  0.24255550  1
  O  O201  1  0.95770800  0.59615750  0.49255550  1
  O  O202  1  0.97115500  0.61593950  0.13370650  1
  O  O203  1  0.02712000  0.59408050  0.01247950  1
  O  O204  1  0.50732900  0.56570400  0.12466400  1
  O  O205  1  0.03796100  0.56204750  0.30037650  1
  O  O206  1  0.46749400  0.56244900  0.31381800  1
  O  O207  1  0.71543800  0.51412050  0.43450350  1
  O  O208  1  0.79203100  0.51231750  0.21568850  1
  O  O209  1  0.27699700  0.50389050  0.05072350  1
  O  O210  1  0.22300300  0.99610950  0.05072350  1
  O  O211  1  0.70796900  0.98768250  0.21568850  1
  O  O212  1  0.78456200  0.98587950  0.43450350  1
  O  O213  1  0.03250600  0.93755100  0.31381800  1
  O  O214  1  0.46203900  0.93795250  0.30037650  1
  O  O215  1  0.99267100  0.93429600  0.12466400  1
  O  O216  1  0.47288000  0.90591950  0.01247950  1
  O  O217  1  0.52884500  0.88406050  0.13370650  1
  O  O218  1  0.54229200  0.90384250  0.49255550  1
  O  O219  1  0.79229200  0.84615750  0.24255550  1
  O  O220  1  0.27884500  0.86593950  0.38370650  1
  O  O221  1  0.22288000  0.84408050  0.26247950  1
  O  O222  1  0.74267100  0.81570400  0.37466400  1
  O  O223  1  0.71203900  0.81204750  0.05037650  1
  O  O224  1  0.28250600  0.81244900  0.06381800  1
  O  O225  1  0.03456200  0.76412050  0.18450350  1
  O  O226  1  0.45796900  0.76231750  0.46568850  1
  O  O227  1  0.97300300  0.75389050  0.30072350  1
  O  O228  1  0.52699700  0.24610950  0.80072350  1
  O  O229  1  0.04203100  0.23768250  0.96568850  1
  O  O230  1  0.46543800  0.23587950  0.68450350  1
  O  O231  1  0.21749400  0.18755100  0.56381800  1
  O  O232  1  0.78796100  0.18795250  0.55037650  1
  O  O233  1  0.75732900  0.18429600  0.87466400  1
  O  O234  1  0.27712000  0.15591950  0.76247950  1
  O  O235  1  0.22115500  0.13406050  0.88370650  1
  O  O236  1  0.70770800  0.15384250  0.74255550  1
  O  O237  1  0.95770800  0.09615750  0.99255550  1
  O  O238  1  0.97115500  0.11593950  0.63370650  1
  O  O239  1  0.02712000  0.09408050  0.51247950  1
  O  O240  1  0.50732900  0.06570400  0.62466400  1
  O  O241  1  0.03796100  0.06204750  0.80037650  1
  O  O242  1  0.46749400  0.06244900  0.81381800  1
  O  O243  1  0.71543800  0.01412050  0.93450350  1
  O  O244  1  0.79203100  0.01231750  0.71568850  1
  O  O245  1  0.27699700  0.00389050  0.55072350  1
  O  O246  1  0.22300300  0.49610950  0.55072350  1
  O  O247  1  0.70796900  0.48768250  0.71568850  1
  O  O248  1  0.78456200  0.48587950  0.93450350  1
  O  O249  1  0.03250600  0.43755100  0.81381800  1
  O  O250  1  0.46203900  0.43795250  0.80037650  1
  O  O251  1  0.99267100  0.43429600  0.62466400  1
  O  O252  1  0.47288000  0.40591950  0.51247950  1
  O  O253  1  0.52884500  0.38406050  0.63370650  1
  O  O254  1  0.54229200  0.40384250  0.99255550  1
  O  O255  1  0.79229200  0.34615750  0.74255550  1
  O  O256  1  0.27884500  0.36593950  0.88370650  1
  O  O257  1  0.22288000  0.34408050  0.76247950  1
  O  O258  1  0.74267100  0.31570400  0.87466400  1
  O  O259  1  0.71203900  0.31204750  0.55037650  1
  O  O260  1  0.28250600  0.31244900  0.56381800  1
  O  O261  1  0.03456200  0.26412050  0.68450350  1
  O  O262  1  0.45796900  0.26231750  0.96568850  1
  O  O263  1  0.97300300  0.25389050  0.80072350  1
