# generated using pymatgen
data_Fe6OF11
_symmetry_space_group_name_H-M   'P 1'
_cell_length_a   6.79221200
_cell_length_b   20.54938400
_cell_length_c   3.25262800
_cell_angle_alpha   90.00000000
_cell_angle_beta   90.00000000
_cell_angle_gamma   90.00000000
_symmetry_Int_Tables_number   1
_chemical_formula_structural   Fe6OF11
_chemical_formula_sum   'Fe12 O2 F22'
_cell_volume   453.98806607
_cell_formula_units_Z   2
loop_
 _symmetry_equiv_pos_site_id
 _symmetry_equiv_pos_as_xyz
  1  'x, y, z'
loop_
 _atom_site_type_symbol
 _atom_site_label
 _atom_site_symmetry_multiplicity
 _atom_site_fract_x
 _atom_site_fract_y
 _atom_site_fract_z
 _atom_site_occupancy
  Fe  Fe0  1  0.01216200  0.00000000  0.50000000  1
  Fe  Fe1  1  0.47240000  0.00000000  0.00000000  1
  Fe  Fe2  1  0.00139100  0.33328100  0.50000000  1
  Fe  Fe3  1  0.00000350  0.16602050  0.00000000  1
  Fe  Fe4  1  0.50000350  0.33397950  0.00000000  1
  Fe  Fe5  1  0.50139100  0.16671900  0.50000000  1
  Fe  Fe6  1  0.51216200  0.50000000  0.50000000  1
  Fe  Fe7  1  0.97240000  0.50000000  0.00000000  1
  Fe  Fe8  1  0.50139100  0.83328100  0.50000000  1
  Fe  Fe9  1  0.50000350  0.66602050  0.00000000  1
  Fe  Fe10  1  0.00000350  0.83397950  0.00000000  1
  Fe  Fe11  1  0.00139100  0.66671900  0.50000000  1
  O  O12  1  0.31436200  0.00000000  0.50000000  1
  O  O13  1  0.81436200  0.50000000  0.50000000  1
  F  F14  1  0.70329900  0.33183100  0.50000000  1
  F  F15  1  0.69474100  0.00000000  0.50000000  1
  F  F16  1  0.00567900  0.40181600  0.00000000  1
  F  F17  1  0.00152500  0.26594000  0.00000000  1
  F  F18  1  0.49633750  0.43162850  0.00000000  1
  F  F19  1  0.29934650  0.33161750  0.50000000  1
  F  F20  1  0.20329900  0.16816900  0.50000000  1
  F  F21  1  0.99633750  0.06837150  0.00000000  1
  F  F22  1  0.50152500  0.23406000  0.00000000  1
  F  F23  1  0.50567900  0.09818400  0.00000000  1
  F  F24  1  0.79934650  0.16838250  0.50000000  1
  F  F25  1  0.20329900  0.83183100  0.50000000  1
  F  F26  1  0.19474100  0.50000000  0.50000000  1
  F  F27  1  0.50567900  0.90181600  0.00000000  1
  F  F28  1  0.50152500  0.76594000  0.00000000  1
  F  F29  1  0.99633750  0.93162850  0.00000000  1
  F  F30  1  0.79934650  0.83161750  0.50000000  1
  F  F31  1  0.70329900  0.66816900  0.50000000  1
  F  F32  1  0.49633750  0.56837150  0.00000000  1
  F  F33  1  0.00152500  0.73406000  0.00000000  1
  F  F34  1  0.00567900  0.59818400  0.00000000  1
  F  F35  1  0.29934650  0.66838250  0.50000000  1
