# generated using pymatgen
data_Fe10O9F11
_symmetry_space_group_name_H-M   'P 1'
_cell_length_a   4.76371400
_cell_length_b   15.49485300
_cell_length_c   4.77024653
_cell_angle_alpha   90.00000000
_cell_angle_beta   91.45759283
_cell_angle_gamma   90.00000000
_symmetry_Int_Tables_number   1
_chemical_formula_structural   Fe10O9F11
_chemical_formula_sum   'Fe10 O9 F11'
_cell_volume   351.99250422
_cell_formula_units_Z   1
loop_
 _symmetry_equiv_pos_site_id
 _symmetry_equiv_pos_as_xyz
  1  'x, y, z'
loop_
 _atom_site_type_symbol
 _atom_site_label
 _atom_site_symmetry_multiplicity
 _atom_site_fract_x
 _atom_site_fract_y
 _atom_site_fract_z
 _atom_site_occupancy
  Fe  Fe0  1  0.97501900  0.70598000  0.95702900  1
  Fe  Fe1  1  0.01206400  0.50000000  0.01460900  1
  Fe  Fe2  1  0.97501900  0.29402000  0.95702900  1
  Fe  Fe3  1  0.05038300  0.09875000  0.00283800  1
  Fe  Fe4  1  0.05038300  0.90125000  0.00283800  1
  Fe  Fe5  1  0.51662300  0.59338900  0.50965900  1
  Fe  Fe6  1  0.47293900  0.20203600  0.52043900  1
  Fe  Fe7  1  0.51662300  0.40661100  0.50965900  1
  Fe  Fe8  1  0.46322000  0.00000000  0.49872500  1
  Fe  Fe9  1  0.47293900  0.79796400  0.52043900  1
  O  O10  1  0.18848100  0.19910400  0.80735500  1
  O  O11  1  0.20419800  0.00000000  0.81177900  1
  O  O12  1  0.18848100  0.80089600  0.80735500  1
  O  O13  1  0.31666500  0.50000000  0.31566700  1
  O  O14  1  0.31592600  0.10207800  0.31572800  1
  O  O15  1  0.31592600  0.89792200  0.31572800  1
  O  O16  1  0.68015300  0.70072500  0.68008200  1
  O  O17  1  0.71062300  0.50000000  0.70098300  1
  O  O18  1  0.68015300  0.29927500  0.68008200  1
  F  F19  1  0.19737200  0.60877900  0.79809100  1
  F  F20  1  0.19737200  0.39122100  0.79809100  1
  F  F21  1  0.28776000  0.70033700  0.29261800  1
  F  F22  1  0.28776000  0.29966300  0.29261800  1
  F  F23  1  0.70144600  0.09912800  0.70618600  1
  F  F24  1  0.70144600  0.90087200  0.70618600  1
  F  F25  1  0.80268500  0.61145500  0.19428700  1
  F  F26  1  0.80077700  0.19771600  0.19384000  1
  F  F27  1  0.80268500  0.38854500  0.19428700  1
  F  F28  1  0.80077700  0.80228400  0.19384000  1
  F  F29  1  0.81410200  0.00000000  0.20193100  1
