# generated using pymatgen
data_LiMnPO4
_symmetry_space_group_name_H-M   'P 1'
_cell_length_a   5.37781901
_cell_length_b   8.84537102
_cell_length_c   9.17202001
_cell_angle_alpha   90.00000000
_cell_angle_beta   90.00000000
_cell_angle_gamma   90.00000000
_symmetry_Int_Tables_number   1
_chemical_formula_structural   LiMnPO4
_chemical_formula_sum   'Li4 Mn4 P4 O16'
_cell_volume   436.30202580
_cell_formula_units_Z   4
loop_
 _symmetry_equiv_pos_site_id
 _symmetry_equiv_pos_as_xyz
  1  'x, y, z'
loop_
 _atom_site_type_symbol
 _atom_site_label
 _atom_site_symmetry_multiplicity
 _atom_site_fract_x
 _atom_site_fract_y
 _atom_site_fract_z
 _atom_site_occupancy
  Li  Li0  1  0.75000000  0.11318050  0.89364000  1
  Li  Li1  1  0.25000000  0.61318050  0.60636000  1
  Li  Li2  1  0.75000000  0.38681950  0.39364000  1
  Li  Li3  1  0.25000000  0.88681950  0.10636000  1
  Mn  Mn4  1  0.75000000  0.14106050  0.59952600  1
  Mn  Mn5  1  0.25000000  0.64106050  0.90047400  1
  Mn  Mn6  1  0.75000000  0.35893950  0.09952600  1
  Mn  Mn7  1  0.25000000  0.85893950  0.40047400  1
  P  P8  1  0.25000000  0.96848850  0.75135300  1
  P  P9  1  0.75000000  0.46848850  0.74864700  1
  P  P10  1  0.25000000  0.53151150  0.25135300  1
  P  P11  1  0.75000000  0.03151150  0.24864700  1
  O  O12  1  0.25000000  0.87756750  0.89657500  1
  O  O13  1  0.75000000  0.37756750  0.60342500  1
  O  O14  1  0.25000000  0.62243250  0.39657500  1
  O  O15  1  0.75000000  0.12243250  0.10342500  1
  O  O16  1  0.75000000  0.35489050  0.87887600  1
  O  O17  1  0.25000000  0.85489050  0.62112400  1
  O  O18  1  0.75000000  0.14510950  0.37887600  1
  O  O19  1  0.25000000  0.64510950  0.12112400  1
  O  O20  1  0.98606950  0.56857950  0.75425100  1
  O  O21  1  0.51393050  0.56857950  0.75425100  1
  O  O22  1  0.48606950  0.06857950  0.74574900  1
  O  O23  1  0.01393050  0.06857950  0.74574900  1
  O  O24  1  0.98606950  0.93142050  0.25425100  1
  O  O25  1  0.51393050  0.93142050  0.25425100  1
  O  O26  1  0.48606950  0.43142050  0.24574900  1
  O  O27  1  0.01393050  0.43142050  0.24574900  1
