# generated using pymatgen
data_Mn3Si3O10
_symmetry_space_group_name_H-M   'P 1'
_cell_length_a   15.70798400
_cell_length_b   4.95155400
_cell_length_c   10.21690058
_cell_angle_alpha   90.00000000
_cell_angle_beta   91.55872890
_cell_angle_gamma   90.00000000
_symmetry_Int_Tables_number   1
_chemical_formula_structural   Mn3Si3O10
_chemical_formula_sum   'Mn12 Si12 O40'
_cell_volume   794.36555585
_cell_formula_units_Z   4
loop_
 _symmetry_equiv_pos_site_id
 _symmetry_equiv_pos_as_xyz
  1  'x, y, z'
loop_
 _atom_site_type_symbol
 _atom_site_label
 _atom_site_symmetry_multiplicity
 _atom_site_fract_x
 _atom_site_fract_y
 _atom_site_fract_z
 _atom_site_occupancy
  Mn  Mn0  1  0.84637400  0.21898100  0.22657600  1
  Mn  Mn1  1  0.75000000  0.25000000  0.50000000  1
  Mn  Mn2  1  0.65362600  0.71898100  0.27342400  1
  Mn  Mn3  1  0.75000000  0.75000000  0.00000000  1
  Mn  Mn4  1  0.84637400  0.78101900  0.72657600  1
  Mn  Mn5  1  0.65362600  0.28101900  0.77342400  1
  Mn  Mn6  1  0.34637400  0.71898100  0.22657600  1
  Mn  Mn7  1  0.25000000  0.75000000  0.50000000  1
  Mn  Mn8  1  0.15362600  0.21898100  0.27342400  1
  Mn  Mn9  1  0.25000000  0.25000000  0.00000000  1
  Mn  Mn10  1  0.34637400  0.28101900  0.72657600  1
  Mn  Mn11  1  0.15362600  0.78101900  0.77342400  1
  Si  Si12  1  0.00000000  0.18720400  0.75000000  1
  Si  Si13  1  0.85470700  0.30265100  0.91064000  1
  Si  Si14  1  0.85470700  0.69734900  0.41064000  1
  Si  Si15  1  0.00000000  0.81279600  0.25000000  1
  Si  Si16  1  0.64529300  0.80265100  0.58936000  1
  Si  Si17  1  0.64529300  0.19734900  0.08936000  1
  Si  Si18  1  0.50000000  0.68720400  0.75000000  1
  Si  Si19  1  0.35470700  0.80265100  0.91064000  1
  Si  Si20  1  0.35470700  0.19734900  0.41064000  1
  Si  Si21  1  0.50000000  0.31279600  0.25000000  1
  Si  Si22  1  0.14529300  0.30265100  0.58936000  1
  Si  Si23  1  0.14529300  0.69734900  0.08936000  1
  O  O24  1  0.94617650  0.39155850  0.84789400  1
  O  O25  1  0.83858250  0.40980150  0.05974100  1
  O  O26  1  0.78239400  0.48602100  0.82486400  1
  O  O27  1  0.65864750  0.47662650  0.60715200  1
  O  O28  1  0.56880300  0.49011900  0.33576200  1
  O  O29  1  0.56880300  0.50988100  0.83576200  1
  O  O30  1  0.65864750  0.52337350  0.10715200  1
  O  O31  1  0.78239400  0.51397900  0.32486400  1
  O  O32  1  0.83858250  0.59019850  0.55974100  1
  O  O33  1  0.94617650  0.60844150  0.34789400  1
  O  O34  1  0.55382350  0.89155850  0.65210600  1
  O  O35  1  0.66141750  0.90980150  0.44025900  1
  O  O36  1  0.71760600  0.98602100  0.67513600  1
  O  O37  1  0.84135250  0.97662650  0.89284800  1
  O  O38  1  0.93119700  0.99011900  0.16423800  1
  O  O39  1  0.93119700  0.00988100  0.66423800  1
  O  O40  1  0.84135250  0.02337350  0.39284800  1
  O  O41  1  0.71760600  0.01397900  0.17513600  1
  O  O42  1  0.66141750  0.09019850  0.94025900  1
  O  O43  1  0.55382350  0.10844150  0.15210600  1
  O  O44  1  0.44617650  0.89155850  0.84789400  1
  O  O45  1  0.33858250  0.90980150  0.05974100  1
  O  O46  1  0.28239400  0.98602100  0.82486400  1
  O  O47  1  0.15864750  0.97662650  0.60715200  1
  O  O48  1  0.06880300  0.99011900  0.33576200  1
  O  O49  1  0.06880300  0.00988100  0.83576200  1
  O  O50  1  0.15864750  0.02337350  0.10715200  1
  O  O51  1  0.28239400  0.01397900  0.32486400  1
  O  O52  1  0.33858250  0.09019850  0.55974100  1
  O  O53  1  0.44617650  0.10844150  0.34789400  1
  O  O54  1  0.05382350  0.39155850  0.65210600  1
  O  O55  1  0.16141750  0.40980150  0.44025900  1
  O  O56  1  0.21760600  0.48602100  0.67513600  1
  O  O57  1  0.34135250  0.47662650  0.89284800  1
  O  O58  1  0.43119700  0.49011900  0.16423800  1
  O  O59  1  0.43119700  0.50988100  0.66423800  1
  O  O60  1  0.34135250  0.52337350  0.39284800  1
  O  O61  1  0.21760600  0.51397900  0.17513600  1
  O  O62  1  0.16141750  0.59019850  0.94025900  1
  O  O63  1  0.05382350  0.60844150  0.15210600  1
