# generated using pymatgen
data_LiMnPO4
_symmetry_space_group_name_H-M   'P 1'
_cell_length_a   5.14234702
_cell_length_b   6.97333601
_cell_length_c   10.37908701
_cell_angle_alpha   90.00000000
_cell_angle_beta   90.00000000
_cell_angle_gamma   90.00000000
_symmetry_Int_Tables_number   1
_chemical_formula_structural   LiMnPO4
_chemical_formula_sum   'Li4 Mn4 P4 O16'
_cell_volume   372.18693669
_cell_formula_units_Z   4
loop_
 _symmetry_equiv_pos_site_id
 _symmetry_equiv_pos_as_xyz
  1  'x, y, z'
loop_
 _atom_site_type_symbol
 _atom_site_label
 _atom_site_symmetry_multiplicity
 _atom_site_fract_x
 _atom_site_fract_y
 _atom_site_fract_z
 _atom_site_occupancy
  Li  Li0  1  0.75458200  0.00375600  0.15063600  1
  Li  Li1  1  0.25458200  0.50375600  0.34936400  1
  Li  Li2  1  0.75458200  0.49624400  0.65063600  1
  Li  Li3  1  0.25458200  0.99624400  0.84936400  1
  Mn  Mn4  1  0.75612200  0.99718300  0.65707100  1
  Mn  Mn5  1  0.25612200  0.49718300  0.84292900  1
  Mn  Mn6  1  0.75612200  0.50281700  0.15707100  1
  Mn  Mn7  1  0.25612200  0.00281700  0.34292900  1
  P  P8  1  0.24973700  0.75276300  0.09713000  1
  P  P9  1  0.74973700  0.25276300  0.40287000  1
  P  P10  1  0.24973700  0.74723700  0.59713000  1
  P  P11  1  0.74973700  0.24723700  0.90287000  1
  O  O12  1  0.80237800  0.25155000  0.05016500  1
  O  O13  1  0.30237800  0.75155000  0.44983500  1
  O  O14  1  0.80237800  0.24845000  0.55016500  1
  O  O15  1  0.30237800  0.74845000  0.94983500  1
  O  O16  1  0.95173500  0.75984800  0.12491900  1
  O  O17  1  0.45173500  0.25984800  0.37508100  1
  O  O18  1  0.95173500  0.74015200  0.62491900  1
  O  O19  1  0.45173500  0.24015200  0.87508100  1
  O  O20  1  0.38012400  0.93268700  0.15701700  1
  O  O21  1  0.88012400  0.43268700  0.34298300  1
  O  O22  1  0.38012400  0.56731300  0.65701700  1
  O  O23  1  0.88012400  0.06731300  0.84298300  1
  O  O24  1  0.35966700  0.56721400  0.16167200  1
  O  O25  1  0.85966700  0.06721400  0.33832800  1
  O  O26  1  0.35966700  0.93278600  0.66167200  1
  O  O27  1  0.85966700  0.43278600  0.83832800  1
