# generated using pymatgen
data_NaV4O10
_symmetry_space_group_name_H-M   'P 1'
_cell_length_a   3.67991600
_cell_length_b   11.75378400
_cell_length_c   18.76153800
_cell_angle_alpha   90.00000000
_cell_angle_beta   90.00000000
_cell_angle_gamma   90.00000000
_symmetry_Int_Tables_number   1
_chemical_formula_structural   NaV4O10
_chemical_formula_sum   'Na4 V16 O40'
_cell_volume   811.49163619
_cell_formula_units_Z   4
loop_
 _symmetry_equiv_pos_site_id
 _symmetry_equiv_pos_as_xyz
  1  'x, y, z'
loop_
 _atom_site_type_symbol
 _atom_site_label
 _atom_site_symmetry_multiplicity
 _atom_site_fract_x
 _atom_site_fract_y
 _atom_site_fract_z
 _atom_site_occupancy
  Na  Na0  1  0.00000000  0.07990800  0.75000000  1
  Na  Na1  1  0.50000000  0.42009200  0.25000000  1
  Na  Na2  1  0.50000000  0.57990800  0.75000000  1
  Na  Na3  1  0.00000000  0.92009200  0.25000000  1
  V  V4  1  0.00000000  0.43658500  0.58149900  1
  V  V5  1  0.00000000  0.27052200  0.08300400  1
  V  V6  1  0.00000000  0.27052200  0.41699600  1
  V  V7  1  0.00000000  0.43658500  0.91850100  1
  V  V8  1  0.50000000  0.22947800  0.91699600  1
  V  V9  1  0.50000000  0.22947800  0.58300400  1
  V  V10  1  0.50000000  0.06341500  0.08149900  1
  V  V11  1  0.50000000  0.06341500  0.41850100  1
  V  V12  1  0.50000000  0.93658500  0.58149900  1
  V  V13  1  0.50000000  0.77052200  0.08300400  1
  V  V14  1  0.50000000  0.77052200  0.41699600  1
  V  V15  1  0.50000000  0.93658500  0.91850100  1
  V  V16  1  0.00000000  0.72947800  0.91699600  1
  V  V17  1  0.00000000  0.72947800  0.58300400  1
  V  V18  1  0.00000000  0.56341500  0.08149900  1
  V  V19  1  0.00000000  0.56341500  0.41850100  1
  O  O20  1  0.00000000  0.26029500  0.56058200  1
  O  O21  1  0.00000000  0.10118700  0.06768800  1
  O  O22  1  0.00000000  0.45899600  0.66788500  1
  O  O23  1  0.00000000  0.26029500  0.93941800  1
  O  O24  1  0.00000000  0.29569000  0.33118800  1
  O  O25  1  0.00000000  0.29569000  0.16881200  1
  O  O26  1  0.00000000  0.42005800  0.04796500  1
  O  O27  1  0.00000000  0.10118700  0.43231200  1
  O  O28  1  0.00000000  0.45899600  0.83211500  1
  O  O29  1  0.00000000  0.42005800  0.45203500  1
  O  O30  1  0.50000000  0.20431000  0.66881200  1
  O  O31  1  0.50000000  0.07994200  0.95203500  1
  O  O32  1  0.50000000  0.20431000  0.83118800  1
  O  O33  1  0.50000000  0.39881300  0.93231200  1
  O  O34  1  0.50000000  0.04100400  0.33211500  1
  O  O35  1  0.50000000  0.07994200  0.54796500  1
  O  O36  1  0.50000000  0.04100400  0.16788500  1
  O  O37  1  0.50000000  0.39881300  0.56768800  1
  O  O38  1  0.50000000  0.23970500  0.06058200  1
  O  O39  1  0.50000000  0.23970500  0.43941800  1
  O  O40  1  0.50000000  0.76029500  0.56058200  1
  O  O41  1  0.50000000  0.60118700  0.06768800  1
  O  O42  1  0.50000000  0.95899600  0.66788500  1
  O  O43  1  0.50000000  0.76029500  0.93941800  1
  O  O44  1  0.50000000  0.79569000  0.33118800  1
  O  O45  1  0.50000000  0.79569000  0.16881200  1
  O  O46  1  0.50000000  0.92005800  0.04796500  1
  O  O47  1  0.50000000  0.60118700  0.43231200  1
  O  O48  1  0.50000000  0.95899600  0.83211500  1
  O  O49  1  0.50000000  0.92005800  0.45203500  1
  O  O50  1  0.00000000  0.70431000  0.66881200  1
  O  O51  1  0.00000000  0.57994200  0.95203500  1
  O  O52  1  0.00000000  0.70431000  0.83118800  1
  O  O53  1  0.00000000  0.89881300  0.93231200  1
  O  O54  1  0.00000000  0.54100400  0.33211500  1
  O  O55  1  0.00000000  0.57994200  0.54796500  1
  O  O56  1  0.00000000  0.54100400  0.16788500  1
  O  O57  1  0.00000000  0.89881300  0.56768800  1
  O  O58  1  0.00000000  0.73970500  0.06058200  1
  O  O59  1  0.00000000  0.73970500  0.43941800  1
