# generated using pymatgen
data_Li2Mn3(BO3)3
_symmetry_space_group_name_H-M   'P 1'
_cell_length_a   8.26885100
_cell_length_b   12.71407800
_cell_length_c   8.28046824
_cell_angle_alpha   90.00000000
_cell_angle_beta   119.80934492
_cell_angle_gamma   90.00000000
_symmetry_Int_Tables_number   1
_chemical_formula_structural   Li2Mn3(BO3)3
_chemical_formula_sum   'Li8 Mn12 B12 O36'
_cell_volume   755.34736031
_cell_formula_units_Z   4
loop_
 _symmetry_equiv_pos_site_id
 _symmetry_equiv_pos_as_xyz
  1  'x, y, z'
loop_
 _atom_site_type_symbol
 _atom_site_label
 _atom_site_symmetry_multiplicity
 _atom_site_fract_x
 _atom_site_fract_y
 _atom_site_fract_z
 _atom_site_occupancy
  Li  Li0  1  0.29698700  0.50000000  0.27798700  1
  Li  Li1  1  0.30005400  0.00000000  0.27720100  1
  Li  Li2  1  0.72071800  0.50000000  0.02186200  1
  Li  Li3  1  0.72021500  0.25155100  0.01821900  1
  Li  Li4  1  0.72021500  0.74844900  0.01821900  1
  Li  Li5  1  0.97838300  0.24878900  0.70026700  1
  Li  Li6  1  0.98295000  0.00000000  0.70101500  1
  Li  Li7  1  0.97838300  0.75121100  0.70026700  1
  Mn  Mn8  1  0.01916200  0.62484700  0.38267800  1
  Mn  Mn9  1  0.01916200  0.37515300  0.38267800  1
  Mn  Mn10  1  0.01126700  0.12553200  0.36022900  1
  Mn  Mn11  1  0.01126700  0.87446800  0.36022900  1
  Mn  Mn12  1  0.62938700  0.62556100  0.63145200  1
  Mn  Mn13  1  0.62938700  0.37443900  0.63145200  1
  Mn  Mn14  1  0.62054300  0.12536000  0.63910300  1
  Mn  Mn15  1  0.62054300  0.87464000  0.63910300  1
  Mn  Mn16  1  0.36953600  0.12482900  0.99673100  1
  Mn  Mn17  1  0.35026800  0.62404400  0.98992200  1
  Mn  Mn18  1  0.35026800  0.37595600  0.98992200  1
  Mn  Mn19  1  0.36953600  0.87517100  0.99673100  1
  B  B20  1  0.99942300  0.12538100  0.99168600  1
  B  B21  1  0.99376200  0.62597500  0.00246400  1
  B  B22  1  0.99376200  0.37402500  0.00246400  1
  B  B23  1  0.99942300  0.87461900  0.99168600  1
  B  B24  1  0.67259100  0.74992100  0.33768800  1
  B  B25  1  0.66518600  0.00000000  0.33672000  1
  B  B26  1  0.67259100  0.25007900  0.33768800  1
  B  B27  1  0.66770900  0.50000000  0.32440000  1
  B  B28  1  0.33061000  0.24973600  0.67355400  1
  B  B29  1  0.34227700  0.50000000  0.66887000  1
  B  B30  1  0.33043700  0.00000000  0.66032500  1
  B  B31  1  0.33061000  0.75026400  0.67355400  1
  O  O32  1  0.18397200  0.38438900  0.10245800  1
  O  O33  1  0.19041600  0.88540300  0.09354600  1
  O  O34  1  0.18397200  0.61561100  0.10245800  1
  O  O35  1  0.19041600  0.11459700  0.09354600  1
  O  O36  1  0.22346000  0.50000000  0.47387400  1
  O  O37  1  0.21528700  0.00000000  0.46687100  1
  O  O38  1  0.21501900  0.25559600  0.48391700  1
  O  O39  1  0.21501900  0.74440400  0.48391700  1
  O  O40  1  0.55046900  0.50000000  0.13375700  1
  O  O41  1  0.55862900  0.74920900  0.14670700  1
  O  O42  1  0.55862900  0.25079100  0.14670700  1
  O  O43  1  0.54098000  0.00000000  0.14703700  1
  O  O44  1  0.89943600  0.13863400  0.08174200  1
  O  O45  1  0.88824000  0.62237000  0.09191800  1
  O  O46  1  0.88824000  0.37763000  0.09191800  1
  O  O47  1  0.89943600  0.86136600  0.08174200  1
  O  O48  1  0.60492200  0.75321600  0.46013700  1
  O  O49  1  0.58822000  0.00000000  0.45300800  1
  O  O50  1  0.60492200  0.24678400  0.46013700  1
  O  O51  1  0.59059500  0.50000000  0.43943400  1
  O  O52  1  0.26851400  0.50000000  0.78318200  1
  O  O53  1  0.25484000  0.24622300  0.79171700  1
  O  O54  1  0.25484000  0.75377700  0.79171700  1
  O  O55  1  0.25593000  0.00000000  0.77735700  1
  O  O56  1  0.53568900  0.50000000  0.74054000  1
  O  O57  1  0.52305300  0.24732200  0.74853700  1
  O  O58  1  0.52211700  0.00000000  0.73369300  1
  O  O59  1  0.52305300  0.75267800  0.74853700  1
  O  O60  1  0.85903700  0.50000000  0.39289900  1
  O  O61  1  0.85545100  0.00000000  0.41023600  1
  O  O62  1  0.86568300  0.74744900  0.41386400  1
  O  O63  1  0.86568300  0.25255100  0.41386400  1
  O  O64  1  0.90456100  0.64009600  0.81208400  1
  O  O65  1  0.90456100  0.35990400  0.81208400  1
  O  O66  1  0.91010800  0.12272700  0.79746800  1
  O  O67  1  0.91010800  0.87727300  0.79746800  1
