# generated using pymatgen
data_Fe10O9F11
_symmetry_space_group_name_H-M   'P 1'
_cell_length_a   4.75466400
_cell_length_b   15.50504700
_cell_length_c   4.76634039
_cell_angle_alpha   90.00000000
_cell_angle_beta   92.17771662
_cell_angle_gamma   90.00000000
_symmetry_Int_Tables_number   1
_chemical_formula_structural   Fe10O9F11
_chemical_formula_sum   'Fe10 O9 F11'
_cell_volume   351.12697893
_cell_formula_units_Z   1
loop_
 _symmetry_equiv_pos_site_id
 _symmetry_equiv_pos_as_xyz
  1  'x, y, z'
loop_
 _atom_site_type_symbol
 _atom_site_label
 _atom_site_symmetry_multiplicity
 _atom_site_fract_x
 _atom_site_fract_y
 _atom_site_fract_z
 _atom_site_occupancy
  Fe  Fe0  1  0.00556700  0.69713400  0.98574100  1
  Fe  Fe1  1  0.02325700  0.50000000  0.97422200  1
  Fe  Fe2  1  0.00556700  0.30286600  0.98574100  1
  Fe  Fe3  1  0.02853800  0.09101700  0.01185600  1
  Fe  Fe4  1  0.02853800  0.90898300  0.01185600  1
  Fe  Fe5  1  0.47605300  0.61196000  0.52256900  1
  Fe  Fe6  1  0.49756400  0.20234000  0.48052200  1
  Fe  Fe7  1  0.47605300  0.38804000  0.52256900  1
  Fe  Fe8  1  0.45670400  0.00000000  0.50232800  1
  Fe  Fe9  1  0.49756400  0.79766000  0.48052200  1
  O  O10  1  0.18824800  0.59828500  0.80603500  1
  O  O11  1  0.18824800  0.40171500  0.80603500  1
  O  O12  1  0.20169000  0.00000000  0.79951000  1
  O  O13  1  0.29794700  0.70090800  0.29534900  1
  O  O14  1  0.29794700  0.29909200  0.29534900  1
  O  O15  1  0.31444000  0.10310700  0.31502500  1
  O  O16  1  0.31444000  0.89689300  0.31502500  1
  O  O17  1  0.69779100  0.70312700  0.69481400  1
  O  O18  1  0.69779100  0.29687300  0.69481400  1
  F  F19  1  0.19928700  0.20063500  0.80257400  1
  F  F20  1  0.19928700  0.79936500  0.80257400  1
  F  F21  1  0.30439800  0.50000000  0.31168600  1
  F  F22  1  0.68402300  0.50000000  0.69311600  1
  F  F23  1  0.70417800  0.10104300  0.70530400  1
  F  F24  1  0.70417800  0.89895700  0.70530400  1
  F  F25  1  0.80119000  0.59510200  0.19367800  1
  F  F26  1  0.81087600  0.20065000  0.18772700  1
  F  F27  1  0.80119000  0.40489800  0.19367800  1
  F  F28  1  0.81087600  0.79935000  0.18772700  1
  F  F29  1  0.78656900  0.00000000  0.21675400  1
