# generated using pymatgen
data_Li4Mn3Co2Ni3O16
_symmetry_space_group_name_H-M   'P 1'
_cell_length_a   10.08553502
_cell_length_b   5.75767625
_cell_length_c   9.29181243
_cell_angle_alpha   90.00000000
_cell_angle_beta   91.57907133
_cell_angle_gamma   90.00000000
_symmetry_Int_Tables_number   1
_chemical_formula_structural   Li4Mn3Co2Ni3O16
_chemical_formula_sum   'Li8 Mn6 Co4 Ni6 O32'
_cell_volume   539.36363353
_cell_formula_units_Z   2
loop_
 _symmetry_equiv_pos_site_id
 _symmetry_equiv_pos_as_xyz
  1  'x, y, z'
loop_
 _atom_site_type_symbol
 _atom_site_label
 _atom_site_symmetry_multiplicity
 _atom_site_fract_x
 _atom_site_fract_y
 _atom_site_fract_z
 _atom_site_occupancy
  Li  Li0  1  0.16641450  0.50000000  0.89642600  1
  Li  Li1  1  0.49547800  0.50000000  0.99211400  1
  Li  Li2  1  0.49817200  0.50000000  0.49666200  1
  Li  Li3  1  0.33284200  0.00000000  0.39814100  1
  Li  Li4  1  0.66641450  0.00000000  0.89642600  1
  Li  Li5  1  0.99547800  0.00000000  0.99211400  1
  Li  Li6  1  0.99817200  0.00000000  0.49666200  1
  Li  Li7  1  0.83284200  0.50000000  0.39814100  1
  Mn  Mn8  1  0.08621000  0.25453700  0.21321400  1
  Mn  Mn9  1  0.08621000  0.74546300  0.21321400  1
  Mn  Mn10  1  0.17194000  0.00000000  0.71393500  1
  Mn  Mn11  1  0.58621000  0.75453700  0.21321400  1
  Mn  Mn12  1  0.58621000  0.24546300  0.21321400  1
  Mn  Mn13  1  0.67194000  0.50000000  0.71393500  1
  Co  Co14  1  0.17025400  0.50000000  0.48743900  1
  Co  Co15  1  0.33868800  0.00000000  0.98295000  1
  Co  Co16  1  0.67025400  0.00000000  0.48743900  1
  Co  Co17  1  0.83868800  0.50000000  0.98295000  1
  Ni  Ni18  1  0.33021900  0.50000000  0.21199000  1
  Ni  Ni19  1  0.41498500  0.75493300  0.71119400  1
  Ni  Ni20  1  0.41498500  0.24506700  0.71119400  1
  Ni  Ni21  1  0.83021900  0.00000000  0.21199000  1
  Ni  Ni22  1  0.91498500  0.25493300  0.71119400  1
  Ni  Ni23  1  0.91498500  0.74506700  0.71119400  1
  O  O24  1  0.08973450  0.24995750  0.59768800  1
  O  O25  1  0.02006400  0.50000000  0.33787800  1
  O  O26  1  0.15960950  0.50000000  0.10564900  1
  O  O27  1  0.00567500  0.00000000  0.30654200  1
  O  O28  1  0.00243850  0.00000000  0.80090700  1
  O  O29  1  0.08973450  0.75004250  0.59768800  1
  O  O30  1  0.23463750  0.27593250  0.34697800  1
  O  O31  1  0.23463750  0.72406750  0.34697800  1
  O  O32  1  0.16403200  0.00000000  0.10219600  1
  O  O33  1  0.33158000  0.50000000  0.59524800  1
  O  O34  1  0.25606100  0.78575100  0.84781400  1
  O  O35  1  0.25606100  0.21424900  0.84781400  1
  O  O36  1  0.33020600  0.00000000  0.60838400  1
  O  O37  1  0.42068450  0.75694350  0.09552500  1
  O  O38  1  0.47784300  0.00000000  0.84667800  1
  O  O39  1  0.42068450  0.24305650  0.09552500  1
  O  O40  1  0.58973450  0.74995750  0.59768800  1
  O  O41  1  0.52006400  0.00000000  0.33787800  1
  O  O42  1  0.65960950  0.00000000  0.10564900  1
  O  O43  1  0.50567500  0.50000000  0.30654200  1
  O  O44  1  0.50243850  0.50000000  0.80090700  1
  O  O45  1  0.58973450  0.25004250  0.59768800  1
  O  O46  1  0.73463750  0.77593250  0.34697800  1
  O  O47  1  0.73463750  0.22406750  0.34697800  1
  O  O48  1  0.66403200  0.50000000  0.10219600  1
  O  O49  1  0.83158000  0.00000000  0.59524800  1
  O  O50  1  0.75606100  0.28575100  0.84781400  1
  O  O51  1  0.75606100  0.71424900  0.84781400  1
  O  O52  1  0.83020600  0.50000000  0.60838400  1
  O  O53  1  0.92068450  0.25694350  0.09552500  1
  O  O54  1  0.97784300  0.50000000  0.84667800  1
  O  O55  1  0.92068450  0.74305650  0.09552500  1
