# generated using pymatgen
data_Li2Cr(CO3)3
_symmetry_space_group_name_H-M   'P 1'
_cell_length_a   7.14203800
_cell_length_b   9.68988400
_cell_length_c   9.58374200
_cell_angle_alpha   90.00000000
_cell_angle_beta   90.00000000
_cell_angle_gamma   90.00000000
_symmetry_Int_Tables_number   1
_chemical_formula_structural   Li2Cr(CO3)3
_chemical_formula_sum   'Li8 Cr4 C12 O36'
_cell_volume   663.24784620
_cell_formula_units_Z   4
loop_
 _symmetry_equiv_pos_site_id
 _symmetry_equiv_pos_as_xyz
  1  'x, y, z'
loop_
 _atom_site_type_symbol
 _atom_site_label
 _atom_site_symmetry_multiplicity
 _atom_site_fract_x
 _atom_site_fract_y
 _atom_site_fract_z
 _atom_site_occupancy
  Li  Li0  1  0.08284700  0.00000000  0.00000000  1
  Li  Li1  1  0.52234300  0.67030700  0.25000000  1
  Li  Li2  1  0.08284700  0.00000000  0.50000000  1
  Li  Li3  1  0.52234300  0.32969300  0.75000000  1
  Li  Li4  1  0.58284700  0.50000000  0.00000000  1
  Li  Li5  1  0.02234300  0.17030700  0.25000000  1
  Li  Li6  1  0.58284700  0.50000000  0.50000000  1
  Li  Li7  1  0.02234300  0.82969300  0.75000000  1
  Cr  Cr8  1  0.54710150  0.25161150  0.25000000  1
  Cr  Cr9  1  0.54710150  0.74838850  0.75000000  1
  Cr  Cr10  1  0.04710150  0.75161150  0.25000000  1
  Cr  Cr11  1  0.04710150  0.24838850  0.75000000  1
  C  C12  1  0.33872900  0.76928100  0.01917500  1
  C  C13  1  0.73726150  0.95235250  0.25000000  1
  C  C14  1  0.33872900  0.76928100  0.48082500  1
  C  C15  1  0.33872900  0.23071900  0.51917500  1
  C  C16  1  0.73726150  0.04764750  0.75000000  1
  C  C17  1  0.33872900  0.23071900  0.98082500  1
  C  C18  1  0.83872900  0.26928100  0.01917500  1
  C  C19  1  0.23726150  0.45235250  0.25000000  1
  C  C20  1  0.83872900  0.26928100  0.48082500  1
  C  C21  1  0.83872900  0.73071900  0.51917500  1
  C  C22  1  0.23726150  0.54764750  0.75000000  1
  C  C23  1  0.83872900  0.73071900  0.98082500  1
  O  O24  1  0.42085900  0.66023100  0.06108400  1
  O  O25  1  0.21876150  0.83346850  0.10001300  1
  O  O26  1  0.36887300  0.17674900  0.10313500  1
  O  O27  1  0.68522450  0.08058850  0.25000000  1
  O  O28  1  0.61487400  0.85995700  0.25000000  1
  O  O29  1  0.91866300  0.93314300  0.25000000  1
  O  O30  1  0.36887300  0.17674900  0.39686500  1
  O  O31  1  0.21876150  0.83346850  0.39998700  1
  O  O32  1  0.42085900  0.66023100  0.43891600  1
  O  O33  1  0.42085900  0.33976900  0.56108400  1
  O  O34  1  0.21876150  0.16653150  0.60001300  1
  O  O35  1  0.36887300  0.82325100  0.60313500  1
  O  O36  1  0.61487400  0.14004300  0.75000000  1
  O  O37  1  0.91866300  0.06685700  0.75000000  1
  O  O38  1  0.68522450  0.91941150  0.75000000  1
  O  O39  1  0.36887300  0.82325100  0.89686500  1
  O  O40  1  0.21876150  0.16653150  0.89998700  1
  O  O41  1  0.42085900  0.33976900  0.93891600  1
  O  O42  1  0.92085900  0.16023100  0.06108400  1
  O  O43  1  0.71876150  0.33346850  0.10001300  1
  O  O44  1  0.86887300  0.67674900  0.10313500  1
  O  O45  1  0.18522450  0.58058850  0.25000000  1
  O  O46  1  0.11487400  0.35995700  0.25000000  1
  O  O47  1  0.41866300  0.43314300  0.25000000  1
  O  O48  1  0.86887300  0.67674900  0.39686500  1
  O  O49  1  0.71876150  0.33346850  0.39998700  1
  O  O50  1  0.92085900  0.16023100  0.43891600  1
  O  O51  1  0.92085900  0.83976900  0.56108400  1
  O  O52  1  0.71876150  0.66653150  0.60001300  1
  O  O53  1  0.86887300  0.32325100  0.60313500  1
  O  O54  1  0.11487400  0.64004300  0.75000000  1
  O  O55  1  0.41866300  0.56685700  0.75000000  1
  O  O56  1  0.18522450  0.41941150  0.75000000  1
  O  O57  1  0.86887300  0.32325100  0.89686500  1
  O  O58  1  0.71876150  0.66653150  0.89998700  1
  O  O59  1  0.92085900  0.83976900  0.93891600  1
