# generated using pymatgen
data_Ti3PO7
_symmetry_space_group_name_H-M   'P 1'
_cell_length_a   8.12289136
_cell_length_b   8.12289136
_cell_length_c   7.14122802
_cell_angle_alpha   90.00000000
_cell_angle_beta   90.00000000
_cell_angle_gamma   120.00000000
_symmetry_Int_Tables_number   1
_chemical_formula_structural   Ti3PO7
_chemical_formula_sum   'Ti9 P3 O21'
_cell_volume   408.06074771
_cell_formula_units_Z   3
loop_
 _symmetry_equiv_pos_site_id
 _symmetry_equiv_pos_as_xyz
  1  'x, y, z'
loop_
 _atom_site_type_symbol
 _atom_site_label
 _atom_site_symmetry_multiplicity
 _atom_site_fract_x
 _atom_site_fract_y
 _atom_site_fract_z
 _atom_site_occupancy
  Ti  Ti0  1  0.87759900  0.75519800  0.58751800  1
  Ti  Ti1  1  0.87759900  0.12240100  0.58751800  1
  Ti  Ti2  1  0.24480200  0.12240100  0.58751800  1
  Ti  Ti3  1  0.54426567  0.08853133  0.92085133  1
  Ti  Ti4  1  0.54426567  0.45573433  0.92085133  1
  Ti  Ti5  1  0.91146867  0.45573433  0.92085133  1
  Ti  Ti6  1  0.21093233  0.42186467  0.25418467  1
  Ti  Ti7  1  0.21093233  0.78906767  0.25418467  1
  Ti  Ti8  1  0.57813533  0.78906767  0.25418467  1
  P  P9  1  0.00000000  0.00000000  0.00486900  1
  P  P10  1  0.66666667  0.33333333  0.33820233  1
  P  P11  1  0.33333333  0.66666667  0.67153567  1
  O  O12  1  0.77128467  0.54256933  0.39845033  1
  O  O13  1  0.74204400  0.87102200  0.47428100  1
  O  O14  1  0.00000000  0.00000000  0.77883400  1
  O  O15  1  0.77128467  0.22871533  0.39845033  1
  O  O16  1  0.12897800  0.87102200  0.47428100  1
  O  O17  1  0.12897800  0.25795600  0.47428100  1
  O  O18  1  0.45743067  0.22871533  0.39845033  1
  O  O19  1  0.43795133  0.87590267  0.73178367  1
  O  O20  1  0.40871067  0.20435533  0.80761433  1
  O  O21  1  0.66666667  0.33333333  0.11216733  1
  O  O22  1  0.43795133  0.56204867  0.73178367  1
  O  O23  1  0.79564467  0.20435533  0.80761433  1
  O  O24  1  0.79564467  0.59128933  0.80761433  1
  O  O25  1  0.12409733  0.56204867  0.73178367  1
  O  O26  1  0.10461800  0.20923600  0.06511700  1
  O  O27  1  0.07537733  0.53768867  0.14094767  1
  O  O28  1  0.33333333  0.66666667  0.44550067  1
  O  O29  1  0.10461800  0.89538200  0.06511700  1
  O  O30  1  0.46231133  0.53768867  0.14094767  1
  O  O31  1  0.46231133  0.92462267  0.14094767  1
  O  O32  1  0.79076400  0.89538200  0.06511700  1
