# generated using pymatgen
data_TiNiO3
_symmetry_space_group_name_H-M   'P 1'
_cell_length_a   5.07517990
_cell_length_b   5.07517990
_cell_length_c   13.99641163
_cell_angle_alpha   90.00000000
_cell_angle_beta   90.00000000
_cell_angle_gamma   120.00000000
_symmetry_Int_Tables_number   1
_chemical_formula_structural   TiNiO3
_chemical_formula_sum   'Ti6 Ni6 O18'
_cell_volume   312.21245180
_cell_formula_units_Z   6
loop_
 _symmetry_equiv_pos_site_id
 _symmetry_equiv_pos_as_xyz
  1  'x, y, z'
loop_
 _atom_site_type_symbol
 _atom_site_label
 _atom_site_symmetry_multiplicity
 _atom_site_fract_x
 _atom_site_fract_y
 _atom_site_fract_z
 _atom_site_occupancy
  Ti  Ti0  1  0.66666667  0.33333333  0.18690833  1
  Ti  Ti1  1  0.33333333  0.66666667  0.02024167  1
  Ti  Ti2  1  0.33333333  0.66666667  0.52024167  1
  Ti  Ti3  1  0.00000000  0.00000000  0.35357500  1
  Ti  Ti4  1  0.00000000  0.00000000  0.85357500  1
  Ti  Ti5  1  0.66666667  0.33333333  0.68690833  1
  Ni  Ni6  1  0.33333333  0.66666667  0.31238767  1
  Ni  Ni7  1  0.00000000  0.00000000  0.14572100  1
  Ni  Ni8  1  0.00000000  0.00000000  0.64572100  1
  Ni  Ni9  1  0.66666667  0.33333333  0.47905433  1
  Ni  Ni10  1  0.66666667  0.33333333  0.97905433  1
  Ni  Ni11  1  0.33333333  0.66666667  0.81238767  1
  O  O12  1  0.97567233  0.29734167  0.24646467  1
  O  O13  1  0.98833600  0.63067500  0.07979800  1
  O  O14  1  0.36932500  0.35766100  0.07979800  1
  O  O15  1  0.32166933  0.02432767  0.24646467  1
  O  O16  1  0.70265833  0.67833067  0.24646467  1
  O  O17  1  0.64233900  0.01166400  0.07979800  1
  O  O18  1  0.64233900  0.63067500  0.57979800  1
  O  O19  1  0.65500267  0.96400833  0.41313133  1
  O  O20  1  0.03599167  0.69099433  0.41313133  1
  O  O21  1  0.98833600  0.35766100  0.57979800  1
  O  O22  1  0.36932500  0.01166400  0.57979800  1
  O  O23  1  0.30900567  0.34499733  0.41313133  1
  O  O24  1  0.30900567  0.96400833  0.91313133  1
  O  O25  1  0.32166933  0.29734167  0.74646467  1
  O  O26  1  0.70265833  0.02432767  0.74646467  1
  O  O27  1  0.65500267  0.69099433  0.91313133  1
  O  O28  1  0.03599167  0.34499733  0.91313133  1
  O  O29  1  0.97567233  0.67833067  0.74646467  1
