# generated using pymatgen
data_Na6V2B4PO16
_symmetry_space_group_name_H-M   'P 1'
_cell_length_a   14.03287400
_cell_length_b   14.03287400
_cell_length_c   14.03287400
_cell_angle_alpha   90.00000000
_cell_angle_beta   90.00000000
_cell_angle_gamma   90.00000000
_symmetry_Int_Tables_number   1
_chemical_formula_structural   Na6V2B4PO16
_chemical_formula_sum   'Na48 V16 B32 P8 O128'
_cell_volume   2763.37533692
_cell_formula_units_Z   8
loop_
 _symmetry_equiv_pos_site_id
 _symmetry_equiv_pos_as_xyz
  1  'x, y, z'
loop_
 _atom_site_type_symbol
 _atom_site_label
 _atom_site_symmetry_multiplicity
 _atom_site_fract_x
 _atom_site_fract_y
 _atom_site_fract_z
 _atom_site_occupancy
  Na  Na0  1  0.45983900  0.75000000  0.75000000  1
  Na  Na1  1  0.00000000  0.79016100  0.00000000  1
  Na  Na2  1  0.25000000  0.75000000  0.95983900  1
  Na  Na3  1  0.25000000  0.75000000  0.54016100  1
  Na  Na4  1  0.20983900  0.00000000  0.00000000  1
  Na  Na5  1  0.00000000  0.20983900  0.00000000  1
  Na  Na6  1  0.04016100  0.75000000  0.75000000  1
  Na  Na7  1  0.75000000  0.04016100  0.75000000  1
  Na  Na8  1  0.00000000  0.00000000  0.79016100  1
  Na  Na9  1  0.00000000  0.00000000  0.20983900  1
  Na  Na10  1  0.25000000  0.95983900  0.75000000  1
  Na  Na11  1  0.79016100  0.00000000  0.00000000  1
  Na  Na12  1  0.45983900  0.25000000  0.25000000  1
  Na  Na13  1  0.00000000  0.29016100  0.50000000  1
  Na  Na14  1  0.25000000  0.25000000  0.45983900  1
  Na  Na15  1  0.25000000  0.25000000  0.04016100  1
  Na  Na16  1  0.20983900  0.50000000  0.50000000  1
  Na  Na17  1  0.00000000  0.70983900  0.50000000  1
  Na  Na18  1  0.04016100  0.25000000  0.25000000  1
  Na  Na19  1  0.75000000  0.54016100  0.25000000  1
  Na  Na20  1  0.00000000  0.50000000  0.29016100  1
  Na  Na21  1  0.00000000  0.50000000  0.70983900  1
  Na  Na22  1  0.25000000  0.45983900  0.25000000  1
  Na  Na23  1  0.79016100  0.50000000  0.50000000  1
  Na  Na24  1  0.95983900  0.75000000  0.25000000  1
  Na  Na25  1  0.50000000  0.79016100  0.50000000  1
  Na  Na26  1  0.75000000  0.75000000  0.45983900  1
  Na  Na27  1  0.75000000  0.75000000  0.04016100  1
  Na  Na28  1  0.70983900  0.00000000  0.50000000  1
  Na  Na29  1  0.50000000  0.20983900  0.50000000  1
  Na  Na30  1  0.54016100  0.75000000  0.25000000  1
  Na  Na31  1  0.25000000  0.04016100  0.25000000  1
  Na  Na32  1  0.50000000  0.00000000  0.29016100  1
  Na  Na33  1  0.50000000  0.00000000  0.70983900  1
  Na  Na34  1  0.75000000  0.95983900  0.25000000  1
  Na  Na35  1  0.29016100  0.00000000  0.50000000  1
  Na  Na36  1  0.95983900  0.25000000  0.75000000  1
  Na  Na37  1  0.50000000  0.29016100  0.00000000  1
  Na  Na38  1  0.75000000  0.25000000  0.95983900  1
  Na  Na39  1  0.75000000  0.25000000  0.54016100  1
  Na  Na40  1  0.70983900  0.50000000  0.00000000  1
  Na  Na41  1  0.50000000  0.70983900  0.00000000  1
  Na  Na42  1  0.54016100  0.25000000  0.75000000  1
  Na  Na43  1  0.25000000  0.54016100  0.75000000  1
  Na  Na44  1  0.50000000  0.50000000  0.79016100  1
  Na  Na45  1  0.50000000  0.50000000  0.20983900  1
  Na  Na46  1  0.75000000  0.45983900  0.75000000  1
  Na  Na47  1  0.29016100  0.50000000  0.00000000  1
  V  V48  1  0.87500000  0.87500000  0.62500000  1
  V  V49  1  0.12500000  0.87500000  0.37500000  1
  V  V50  1  0.12500000  0.12500000  0.62500000  1
  V  V51  1  0.87500000  0.12500000  0.37500000  1
  V  V52  1  0.87500000  0.37500000  0.12500000  1
  V  V53  1  0.12500000  0.37500000  0.87500000  1
  V  V54  1  0.12500000  0.62500000  0.12500000  1
  V  V55  1  0.87500000  0.62500000  0.87500000  1
  V  V56  1  0.37500000  0.87500000  0.12500000  1
  V  V57  1  0.62500000  0.87500000  0.87500000  1
  V  V58  1  0.62500000  0.12500000  0.12500000  1
  V  V59  1  0.37500000  0.12500000  0.87500000  1
  V  V60  1  0.37500000  0.37500000  0.62500000  1
  V  V61  1  0.62500000  0.37500000  0.37500000  1
  V  V62  1  0.62500000  0.62500000  0.62500000  1
  V  V63  1  0.37500000  0.62500000  0.37500000  1
  B  B64  1  0.16415700  0.16415700  0.83584300  1
  B  B65  1  0.83584300  0.16415700  0.16415700  1
  B  B66  1  0.16415700  0.83584300  0.16415700  1
  B  B67  1  0.83584300  0.83584300  0.83584300  1
  B  B68  1  0.41415700  0.91415700  0.91415700  1
  B  B69  1  0.08584300  0.91415700  0.58584300  1
  B  B70  1  0.91415700  0.08584300  0.58584300  1
  B  B71  1  0.58584300  0.08584300  0.91415700  1
  B  B72  1  0.16415700  0.66415700  0.33584300  1
  B  B73  1  0.83584300  0.66415700  0.66415700  1
  B  B74  1  0.16415700  0.33584300  0.66415700  1
  B  B75  1  0.83584300  0.33584300  0.33584300  1
  B  B76  1  0.41415700  0.41415700  0.41415700  1
  B  B77  1  0.08584300  0.41415700  0.08584300  1
  B  B78  1  0.91415700  0.58584300  0.08584300  1
  B  B79  1  0.58584300  0.58584300  0.41415700  1
  B  B80  1  0.66415700  0.16415700  0.33584300  1
  B  B81  1  0.33584300  0.16415700  0.66415700  1
  B  B82  1  0.66415700  0.83584300  0.66415700  1
  B  B83  1  0.33584300  0.83584300  0.33584300  1
  B  B84  1  0.91415700  0.91415700  0.41415700  1
  B  B85  1  0.58584300  0.91415700  0.08584300  1
  B  B86  1  0.41415700  0.08584300  0.08584300  1
  B  B87  1  0.08584300  0.08584300  0.41415700  1
  B  B88  1  0.66415700  0.66415700  0.83584300  1
  B  B89  1  0.33584300  0.66415700  0.16415700  1
  B  B90  1  0.66415700  0.33584300  0.16415700  1
  B  B91  1  0.33584300  0.33584300  0.83584300  1
  B  B92  1  0.91415700  0.41415700  0.91415700  1
  B  B93  1  0.58584300  0.41415700  0.58584300  1
  B  B94  1  0.41415700  0.58584300  0.58584300  1
  B  B95  1  0.08584300  0.58584300  0.91415700  1
  P  P96  1  0.25000000  0.75000000  0.75000000  1
  P  P97  1  0.00000000  0.00000000  0.00000000  1
  P  P98  1  0.25000000  0.25000000  0.25000000  1
  P  P99  1  0.00000000  0.50000000  0.50000000  1
  P  P100  1  0.75000000  0.75000000  0.25000000  1
  P  P101  1  0.50000000  0.00000000  0.50000000  1
  P  P102  1  0.75000000  0.25000000  0.75000000  1
  P  P103  1  0.50000000  0.50000000  0.00000000  1
  O  O104  1  0.98968700  0.14588900  0.60541500  1
  O  O105  1  0.51031300  0.14588900  0.89458500  1
  O  O106  1  0.10411100  0.14458500  0.76031300  1
  O  O107  1  0.64458500  0.23968700  0.39588900  1
  O  O108  1  0.68599033  0.18599033  0.68599033  1
  O  O109  1  0.14458500  0.76031300  0.10411100  1
  O  O110  1  0.60411100  0.85541500  0.73968700  1
  O  O111  1  0.81400967  0.18599033  0.81400967  1
  O  O112  1  0.18599033  0.81400967  0.81400967  1
  O  O113  1  0.39588900  0.14458500  0.73968700  1
  O  O114  1  0.85541500  0.23968700  0.10411100  1
  O  O115  1  0.31400967  0.81400967  0.68599033  1
  O  O116  1  0.35541500  0.76031300  0.39588900  1
  O  O117  1  0.73968700  0.89588900  0.64458500  1
  O  O118  1  0.76031300  0.89588900  0.85541500  1
  O  O119  1  0.35411100  0.89458500  0.98968700  1
  O  O120  1  0.89588900  0.85541500  0.76031300  1
  O  O121  1  0.48968700  0.85411100  0.89458500  1
  O  O122  1  0.01031300  0.85411100  0.60541500  1
  O  O123  1  0.39458500  0.98968700  0.85411100  1
  O  O124  1  0.93599033  0.93599033  0.06400967  1
  O  O125  1  0.89458500  0.01031300  0.64588900  1
  O  O126  1  0.85411100  0.10541500  0.51031300  1
  O  O127  1  0.06400967  0.93599033  0.93599033  1
  O  O128  1  0.93599033  0.06400967  0.93599033  1
  O  O129  1  0.14588900  0.89458500  0.51031300  1
  O  O130  1  0.10541500  0.98968700  0.64588900  1
  O  O131  1  0.06400967  0.06400967  0.06400967  1
  O  O132  1  0.60541500  0.01031300  0.85411100  1
  O  O133  1  0.64588900  0.10541500  0.98968700  1
  O  O134  1  0.23968700  0.10411100  0.85541500  1
  O  O135  1  0.26031300  0.10411100  0.64458500  1
  O  O136  1  0.98968700  0.64588900  0.10541500  1
  O  O137  1  0.51031300  0.64588900  0.39458500  1
  O  O138  1  0.10411100  0.64458500  0.26031300  1
  O  O139  1  0.64458500  0.73968700  0.89588900  1
  O  O140  1  0.68599033  0.68599033  0.18599033  1
  O  O141  1  0.14458500  0.26031300  0.60411100  1
  O  O142  1  0.60411100  0.35541500  0.23968700  1
  O  O143  1  0.81400967  0.68599033  0.31400967  1
  O  O144  1  0.18599033  0.31400967  0.31400967  1
  O  O145  1  0.39588900  0.64458500  0.23968700  1
  O  O146  1  0.85541500  0.73968700  0.60411100  1
  O  O147  1  0.31400967  0.31400967  0.18599033  1
  O  O148  1  0.35541500  0.26031300  0.89588900  1
  O  O149  1  0.73968700  0.39588900  0.14458500  1
  O  O150  1  0.76031300  0.39588900  0.35541500  1
  O  O151  1  0.35411100  0.39458500  0.48968700  1
  O  O152  1  0.89588900  0.35541500  0.26031300  1
  O  O153  1  0.48968700  0.35411100  0.39458500  1
  O  O154  1  0.01031300  0.35411100  0.10541500  1
  O  O155  1  0.39458500  0.48968700  0.35411100  1
  O  O156  1  0.93599033  0.43599033  0.56400967  1
  O  O157  1  0.89458500  0.51031300  0.14588900  1
  O  O158  1  0.85411100  0.60541500  0.01031300  1
  O  O159  1  0.06400967  0.43599033  0.43599033  1
  O  O160  1  0.93599033  0.56400967  0.43599033  1
  O  O161  1  0.14588900  0.39458500  0.01031300  1
  O  O162  1  0.10541500  0.48968700  0.14588900  1
  O  O163  1  0.06400967  0.56400967  0.56400967  1
  O  O164  1  0.60541500  0.51031300  0.35411100  1
  O  O165  1  0.64588900  0.60541500  0.48968700  1
  O  O166  1  0.23968700  0.60411100  0.35541500  1
  O  O167  1  0.26031300  0.60411100  0.14458500  1
  O  O168  1  0.48968700  0.14588900  0.10541500  1
  O  O169  1  0.01031300  0.14588900  0.39458500  1
  O  O170  1  0.60411100  0.14458500  0.26031300  1
  O  O171  1  0.14458500  0.23968700  0.89588900  1
  O  O172  1  0.18599033  0.18599033  0.18599033  1
  O  O173  1  0.64458500  0.76031300  0.60411100  1
  O  O174  1  0.10411100  0.85541500  0.23968700  1
  O  O175  1  0.31400967  0.18599033  0.31400967  1
  O  O176  1  0.68599033  0.81400967  0.31400967  1
  O  O177  1  0.89588900  0.14458500  0.23968700  1
  O  O178  1  0.35541500  0.23968700  0.60411100  1
  O  O179  1  0.81400967  0.81400967  0.18599033  1
  O  O180  1  0.85541500  0.76031300  0.89588900  1
  O  O181  1  0.23968700  0.89588900  0.14458500  1
  O  O182  1  0.26031300  0.89588900  0.35541500  1
  O  O183  1  0.85411100  0.89458500  0.48968700  1
  O  O184  1  0.39588900  0.85541500  0.26031300  1
  O  O185  1  0.98968700  0.85411100  0.39458500  1
  O  O186  1  0.51031300  0.85411100  0.10541500  1
  O  O187  1  0.89458500  0.98968700  0.35411100  1
  O  O188  1  0.43599033  0.93599033  0.56400967  1
  O  O189  1  0.39458500  0.01031300  0.14588900  1
  O  O190  1  0.35411100  0.10541500  0.01031300  1
  O  O191  1  0.56400967  0.93599033  0.43599033  1
  O  O192  1  0.43599033  0.06400967  0.43599033  1
  O  O193  1  0.64588900  0.89458500  0.01031300  1
  O  O194  1  0.60541500  0.98968700  0.14588900  1
  O  O195  1  0.56400967  0.06400967  0.56400967  1
  O  O196  1  0.10541500  0.01031300  0.35411100  1
  O  O197  1  0.14588900  0.10541500  0.48968700  1
  O  O198  1  0.73968700  0.10411100  0.35541500  1
  O  O199  1  0.76031300  0.10411100  0.14458500  1
  O  O200  1  0.48968700  0.64588900  0.60541500  1
  O  O201  1  0.01031300  0.64588900  0.89458500  1
  O  O202  1  0.60411100  0.64458500  0.76031300  1
  O  O203  1  0.14458500  0.73968700  0.39588900  1
  O  O204  1  0.18599033  0.68599033  0.68599033  1
  O  O205  1  0.64458500  0.26031300  0.10411100  1
  O  O206  1  0.10411100  0.35541500  0.73968700  1
  O  O207  1  0.31400967  0.68599033  0.81400967  1
  O  O208  1  0.68599033  0.31400967  0.81400967  1
  O  O209  1  0.89588900  0.64458500  0.73968700  1
  O  O210  1  0.35541500  0.73968700  0.10411100  1
  O  O211  1  0.81400967  0.31400967  0.68599033  1
  O  O212  1  0.85541500  0.26031300  0.39588900  1
  O  O213  1  0.23968700  0.39588900  0.64458500  1
  O  O214  1  0.26031300  0.39588900  0.85541500  1
  O  O215  1  0.85411100  0.39458500  0.98968700  1
  O  O216  1  0.39588900  0.35541500  0.76031300  1
  O  O217  1  0.98968700  0.35411100  0.89458500  1
  O  O218  1  0.51031300  0.35411100  0.60541500  1
  O  O219  1  0.89458500  0.48968700  0.85411100  1
  O  O220  1  0.43599033  0.43599033  0.06400967  1
  O  O221  1  0.39458500  0.51031300  0.64588900  1
  O  O222  1  0.35411100  0.60541500  0.51031300  1
  O  O223  1  0.56400967  0.43599033  0.93599033  1
  O  O224  1  0.43599033  0.56400967  0.93599033  1
  O  O225  1  0.64588900  0.39458500  0.51031300  1
  O  O226  1  0.60541500  0.48968700  0.64588900  1
  O  O227  1  0.56400967  0.56400967  0.06400967  1
  O  O228  1  0.10541500  0.51031300  0.85411100  1
  O  O229  1  0.14588900  0.60541500  0.98968700  1
  O  O230  1  0.73968700  0.60411100  0.85541500  1
  O  O231  1  0.76031300  0.60411100  0.64458500  1
