# generated using pymatgen
data_Li4Mn5(CuO6)2
_symmetry_space_group_name_H-M   'P 1'
_cell_length_a   5.35359500
_cell_length_b   8.80648000
_cell_length_c   9.75844796
_cell_angle_alpha   90.00000000
_cell_angle_beta   97.42877487
_cell_angle_gamma   90.00000000
_symmetry_Int_Tables_number   1
_chemical_formula_structural   Li4Mn5(CuO6)2
_chemical_formula_sum   'Li8 Mn10 Cu4 O24'
_cell_volume   456.21327478
_cell_formula_units_Z   2
loop_
 _symmetry_equiv_pos_site_id
 _symmetry_equiv_pos_as_xyz
  1  'x, y, z'
loop_
 _atom_site_type_symbol
 _atom_site_label
 _atom_site_symmetry_multiplicity
 _atom_site_fract_x
 _atom_site_fract_y
 _atom_site_fract_z
 _atom_site_occupancy
  Li  Li0  1  0.01248600  0.09708500  0.26202400  1
  Li  Li1  1  0.47711500  0.08490200  0.73886000  1
  Li  Li2  1  0.76026000  0.42117800  0.49370800  1
  Li  Li3  1  0.98751400  0.59708500  0.73797600  1
  Li  Li4  1  0.49127500  0.40613000  0.73631500  1
  Li  Li5  1  0.52288500  0.58490200  0.26114000  1
  Li  Li6  1  0.23974000  0.92117800  0.50629200  1
  Li  Li7  1  0.50872500  0.90613000  0.26368500  1
  Mn  Mn8  1  0.26419000  0.07406700  0.00380900  1
  Mn  Mn9  1  0.74269200  0.08403600  0.50234300  1
  Mn  Mn10  1  0.99128700  0.24600600  0.74486700  1
  Mn  Mn11  1  0.23173100  0.41151200  0.99281400  1
  Mn  Mn12  1  0.50778600  0.25518200  0.25514200  1
  Mn  Mn13  1  0.25730800  0.58403600  0.49765700  1
  Mn  Mn14  1  0.73581000  0.57406700  0.99619100  1
  Mn  Mn15  1  0.00871300  0.74600600  0.25513300  1
  Mn  Mn16  1  0.49221400  0.75518200  0.74485800  1
  Mn  Mn17  1  0.76826900  0.91151200  0.00718600  1
  Cu  Cu18  1  0.24394200  0.26199600  0.49309300  1
  Cu  Cu19  1  0.75316600  0.24762600  0.00506900  1
  Cu  Cu20  1  0.24683400  0.74762600  0.99493100  1
  Cu  Cu21  1  0.75605800  0.76199600  0.50690700  1
  O  O22  1  0.09560100  0.11077800  0.60319800  1
  O  O23  1  0.90545600  0.07651000  0.90694100  1
  O  O24  1  0.18485200  0.23407900  0.13003700  1
  O  O25  1  0.60472100  0.08133200  0.11521000  1
  O  O26  1  0.82376300  0.23769800  0.37110800  1
  O  O27  1  0.39773900  0.10216900  0.39147000  1
  O  O28  1  0.14106800  0.42407700  0.60922600  1
  O  O29  1  0.66438900  0.23778500  0.63635600  1
  O  O30  1  0.87818300  0.39934600  0.87033200  1
  O  O31  1  0.32122600  0.25638100  0.86083000  1
  O  O32  1  0.09454400  0.57651000  0.09305900  1
  O  O33  1  0.59857300  0.41572000  0.11172100  1
  O  O34  1  0.90439900  0.61077800  0.39680200  1
  O  O35  1  0.38392800  0.42139500  0.38923300  1
  O  O36  1  0.17623700  0.73769800  0.62889200  1
  O  O37  1  0.60226100  0.60216900  0.60853000  1
  O  O38  1  0.81514800  0.73407900  0.86996300  1
  O  O39  1  0.39527900  0.58133200  0.88479000  1
  O  O40  1  0.12181700  0.89934600  0.12966800  1
  O  O41  1  0.67877400  0.75638100  0.13917000  1
  O  O42  1  0.85893200  0.92407700  0.39077400  1
  O  O43  1  0.33561100  0.73778500  0.36364400  1
  O  O44  1  0.61607200  0.92139500  0.61076700  1
  O  O45  1  0.40142700  0.91572000  0.88827900  1
