# generated using pymatgen
data_Na3(Pt3O4)4
_symmetry_space_group_name_H-M   'P 1'
_cell_length_a   11.48991600
_cell_length_b   11.48991600
_cell_length_c   11.48991600
_cell_angle_alpha   90.00000000
_cell_angle_beta   90.00000000
_cell_angle_gamma   90.00000000
_symmetry_Int_Tables_number   1
_chemical_formula_structural   Na3(Pt3O4)4
_chemical_formula_sum   'Na12 Pt48 O64'
_cell_volume   1516.87768018
_cell_formula_units_Z   4
loop_
 _symmetry_equiv_pos_site_id
 _symmetry_equiv_pos_as_xyz
  1  'x, y, z'
loop_
 _atom_site_type_symbol
 _atom_site_label
 _atom_site_symmetry_multiplicity
 _atom_site_fract_x
 _atom_site_fract_y
 _atom_site_fract_z
 _atom_site_occupancy
  Na  Na0  1  0.50000000  0.00000000  0.00000000  1
  Na  Na1  1  0.25000000  0.25000000  0.25000000  1
  Na  Na2  1  0.25000000  0.25000000  0.75000000  1
  Na  Na3  1  0.50000000  0.50000000  0.50000000  1
  Na  Na4  1  0.25000000  0.75000000  0.75000000  1
  Na  Na5  1  0.25000000  0.75000000  0.25000000  1
  Na  Na6  1  0.00000000  0.00000000  0.50000000  1
  Na  Na7  1  0.75000000  0.25000000  0.75000000  1
  Na  Na8  1  0.75000000  0.25000000  0.25000000  1
  Na  Na9  1  0.00000000  0.50000000  0.00000000  1
  Na  Na10  1  0.75000000  0.75000000  0.25000000  1
  Na  Na11  1  0.75000000  0.75000000  0.75000000  1
  Pt  Pt12  1  0.74849700  0.37627400  0.00000000  1
  Pt  Pt13  1  0.24849700  0.12372600  0.00000000  1
  Pt  Pt14  1  0.37627400  0.00000000  0.25150300  1
  Pt  Pt15  1  0.00000000  0.24849700  0.12372600  1
  Pt  Pt16  1  0.50000000  0.25150300  0.12372600  1
  Pt  Pt17  1  0.62372600  0.00000000  0.25150300  1
  Pt  Pt18  1  0.25150300  0.37627400  0.00000000  1
  Pt  Pt19  1  0.75150300  0.12372600  0.00000000  1
  Pt  Pt20  1  0.37627400  0.00000000  0.74849700  1
  Pt  Pt21  1  0.00000000  0.24849700  0.87627400  1
  Pt  Pt22  1  0.50000000  0.25150300  0.87627400  1
  Pt  Pt23  1  0.62372600  0.00000000  0.74849700  1
  Pt  Pt24  1  0.74849700  0.87627400  0.50000000  1
  Pt  Pt25  1  0.24849700  0.62372600  0.50000000  1
  Pt  Pt26  1  0.37627400  0.50000000  0.75150300  1
  Pt  Pt27  1  0.00000000  0.74849700  0.62372600  1
  Pt  Pt28  1  0.50000000  0.75150300  0.62372600  1
  Pt  Pt29  1  0.62372600  0.50000000  0.75150300  1
  Pt  Pt30  1  0.25150300  0.87627400  0.50000000  1
  Pt  Pt31  1  0.75150300  0.62372600  0.50000000  1
  Pt  Pt32  1  0.37627400  0.50000000  0.24849700  1
  Pt  Pt33  1  0.00000000  0.74849700  0.37627400  1
  Pt  Pt34  1  0.50000000  0.75150300  0.37627400  1
  Pt  Pt35  1  0.62372600  0.50000000  0.24849700  1
  Pt  Pt36  1  0.24849700  0.37627400  0.50000000  1
  Pt  Pt37  1  0.74849700  0.12372600  0.50000000  1
  Pt  Pt38  1  0.87627400  0.00000000  0.75150300  1
  Pt  Pt39  1  0.50000000  0.24849700  0.62372600  1
  Pt  Pt40  1  0.00000000  0.25150300  0.62372600  1
  Pt  Pt41  1  0.12372600  0.00000000  0.75150300  1
  Pt  Pt42  1  0.75150300  0.37627400  0.50000000  1
  Pt  Pt43  1  0.25150300  0.12372600  0.50000000  1
  Pt  Pt44  1  0.87627400  0.00000000  0.24849700  1
  Pt  Pt45  1  0.50000000  0.24849700  0.37627400  1
  Pt  Pt46  1  0.00000000  0.25150300  0.37627400  1
  Pt  Pt47  1  0.12372600  0.00000000  0.24849700  1
  Pt  Pt48  1  0.24849700  0.87627400  0.00000000  1
  Pt  Pt49  1  0.74849700  0.62372600  0.00000000  1
  Pt  Pt50  1  0.87627400  0.50000000  0.25150300  1
  Pt  Pt51  1  0.50000000  0.74849700  0.12372600  1
  Pt  Pt52  1  0.00000000  0.75150300  0.12372600  1
  Pt  Pt53  1  0.12372600  0.50000000  0.25150300  1
  Pt  Pt54  1  0.75150300  0.87627400  0.00000000  1
  Pt  Pt55  1  0.25150300  0.62372600  0.00000000  1
  Pt  Pt56  1  0.87627400  0.50000000  0.74849700  1
  Pt  Pt57  1  0.50000000  0.74849700  0.87627400  1
  Pt  Pt58  1  0.00000000  0.75150300  0.87627400  1
  Pt  Pt59  1  0.12372600  0.50000000  0.74849700  1
  O  O60  1  0.37551500  0.12448500  0.12448500  1
  O  O61  1  0.87551500  0.37551500  0.12448500  1
  O  O62  1  0.12939133  0.12939133  0.12939133  1
  O  O63  1  0.62448500  0.12448500  0.12448500  1
  O  O64  1  0.12939133  0.37060867  0.37060867  1
  O  O65  1  0.12939133  0.12939133  0.87060867  1
  O  O66  1  0.12939133  0.37060867  0.62939133  1
  O  O67  1  0.12448500  0.37551500  0.12448500  1
  O  O68  1  0.37060867  0.12939133  0.62939133  1
  O  O69  1  0.37060867  0.12939133  0.37060867  1
  O  O70  1  0.37060867  0.37060867  0.12939133  1
  O  O71  1  0.87551500  0.37551500  0.87551500  1
  O  O72  1  0.37551500  0.12448500  0.87551500  1
  O  O73  1  0.37060867  0.37060867  0.87060867  1
  O  O74  1  0.12448500  0.37551500  0.87551500  1
  O  O75  1  0.62448500  0.12448500  0.87551500  1
  O  O76  1  0.37551500  0.62448500  0.62448500  1
  O  O77  1  0.87551500  0.87551500  0.62448500  1
  O  O78  1  0.12939133  0.62939133  0.62939133  1
  O  O79  1  0.62448500  0.62448500  0.62448500  1
  O  O80  1  0.12939133  0.87060867  0.87060867  1
  O  O81  1  0.12939133  0.62939133  0.37060867  1
  O  O82  1  0.12939133  0.87060867  0.12939133  1
  O  O83  1  0.12448500  0.87551500  0.62448500  1
  O  O84  1  0.37060867  0.62939133  0.12939133  1
  O  O85  1  0.37060867  0.62939133  0.87060867  1
  O  O86  1  0.37060867  0.87060867  0.62939133  1
  O  O87  1  0.87551500  0.87551500  0.37551500  1
  O  O88  1  0.37551500  0.62448500  0.37551500  1
  O  O89  1  0.37060867  0.87060867  0.37060867  1
  O  O90  1  0.12448500  0.87551500  0.37551500  1
  O  O91  1  0.62448500  0.62448500  0.37551500  1
  O  O92  1  0.87551500  0.12448500  0.62448500  1
  O  O93  1  0.37551500  0.37551500  0.62448500  1
  O  O94  1  0.62939133  0.12939133  0.62939133  1
  O  O95  1  0.12448500  0.12448500  0.62448500  1
  O  O96  1  0.62939133  0.37060867  0.87060867  1
  O  O97  1  0.62939133  0.12939133  0.37060867  1
  O  O98  1  0.62939133  0.37060867  0.12939133  1
  O  O99  1  0.62448500  0.37551500  0.62448500  1
  O  O100  1  0.87060867  0.12939133  0.12939133  1
  O  O101  1  0.87060867  0.12939133  0.87060867  1
  O  O102  1  0.87060867  0.37060867  0.62939133  1
  O  O103  1  0.37551500  0.37551500  0.37551500  1
  O  O104  1  0.87551500  0.12448500  0.37551500  1
  O  O105  1  0.87060867  0.37060867  0.37060867  1
  O  O106  1  0.62448500  0.37551500  0.37551500  1
  O  O107  1  0.12448500  0.12448500  0.37551500  1
  O  O108  1  0.87551500  0.62448500  0.12448500  1
  O  O109  1  0.37551500  0.87551500  0.12448500  1
  O  O110  1  0.62939133  0.62939133  0.12939133  1
  O  O111  1  0.12448500  0.62448500  0.12448500  1
  O  O112  1  0.62939133  0.87060867  0.37060867  1
  O  O113  1  0.62939133  0.62939133  0.87060867  1
  O  O114  1  0.62939133  0.87060867  0.62939133  1
  O  O115  1  0.62448500  0.87551500  0.12448500  1
  O  O116  1  0.87060867  0.62939133  0.62939133  1
  O  O117  1  0.87060867  0.62939133  0.37060867  1
  O  O118  1  0.87060867  0.87060867  0.12939133  1
  O  O119  1  0.37551500  0.87551500  0.87551500  1
  O  O120  1  0.87551500  0.62448500  0.87551500  1
  O  O121  1  0.87060867  0.87060867  0.87060867  1
  O  O122  1  0.62448500  0.87551500  0.87551500  1
  O  O123  1  0.12448500  0.62448500  0.87551500  1
