# generated using pymatgen
data_Li3CrCo3O8
_symmetry_space_group_name_H-M   'P 1'
_cell_length_a   5.69088762
_cell_length_b   5.69088762
_cell_length_c   14.51308332
_cell_angle_alpha   90.00000000
_cell_angle_beta   90.00000000
_cell_angle_gamma   120.00000000
_symmetry_Int_Tables_number   1
_chemical_formula_structural   Li3CrCo3O8
_chemical_formula_sum   'Li9 Cr3 Co9 O24'
_cell_volume   407.05241897
_cell_formula_units_Z   3
loop_
 _symmetry_equiv_pos_site_id
 _symmetry_equiv_pos_as_xyz
  1  'x, y, z'
loop_
 _atom_site_type_symbol
 _atom_site_label
 _atom_site_symmetry_multiplicity
 _atom_site_fract_x
 _atom_site_fract_y
 _atom_site_fract_z
 _atom_site_occupancy
  Li  Li0  1  0.83333333  0.16666667  0.16666667  1
  Li  Li1  1  0.83333333  0.66666667  0.16666667  1
  Li  Li2  1  0.33333333  0.16666667  0.16666667  1
  Li  Li3  1  0.50000000  0.50000000  0.50000000  1
  Li  Li4  1  0.50000000  0.00000000  0.50000000  1
  Li  Li5  1  0.00000000  0.50000000  0.50000000  1
  Li  Li6  1  0.16666667  0.83333333  0.83333333  1
  Li  Li7  1  0.16666667  0.33333333  0.83333333  1
  Li  Li8  1  0.66666667  0.83333333  0.83333333  1
  Cr  Cr9  1  0.00000000  0.00000000  0.00000000  1
  Cr  Cr10  1  0.66666667  0.33333333  0.33333333  1
  Cr  Cr11  1  0.33333333  0.66666667  0.66666667  1
  Co  Co12  1  0.00000000  0.50000000  0.00000000  1
  Co  Co13  1  0.50000000  0.50000000  0.00000000  1
  Co  Co14  1  0.50000000  0.00000000  0.00000000  1
  Co  Co15  1  0.66666667  0.83333333  0.33333333  1
  Co  Co16  1  0.16666667  0.83333333  0.33333333  1
  Co  Co17  1  0.16666667  0.33333333  0.33333333  1
  Co  Co18  1  0.33333333  0.16666667  0.66666667  1
  Co  Co19  1  0.83333333  0.16666667  0.66666667  1
  Co  Co20  1  0.83333333  0.66666667  0.66666667  1
  O  O21  1  0.50130733  0.00261467  0.26213267  1
  O  O22  1  0.50130733  0.49869267  0.26213267  1
  O  O23  1  0.99738533  0.49869267  0.26213267  1
  O  O24  1  0.00000000  0.00000000  0.26212600  1
  O  O25  1  0.66666667  0.33333333  0.07120733  1
  O  O26  1  0.66928133  0.83464067  0.07120067  1
  O  O27  1  0.16535933  0.83464067  0.07120067  1
  O  O28  1  0.16535933  0.33071867  0.07120067  1
  O  O29  1  0.16797400  0.33594800  0.59546600  1
  O  O30  1  0.16797400  0.83202600  0.59546600  1
  O  O31  1  0.66405200  0.83202600  0.59546600  1
  O  O32  1  0.66666667  0.33333333  0.59545933  1
  O  O33  1  0.33333333  0.66666667  0.40454067  1
  O  O34  1  0.33594800  0.16797400  0.40453400  1
  O  O35  1  0.83202600  0.16797400  0.40453400  1
  O  O36  1  0.83202600  0.66405200  0.40453400  1
  O  O37  1  0.83464067  0.66928133  0.92879933  1
  O  O38  1  0.83464067  0.16535933  0.92879933  1
  O  O39  1  0.33071867  0.16535933  0.92879933  1
  O  O40  1  0.33333333  0.66666667  0.92879267  1
  O  O41  1  0.00000000  0.00000000  0.73787400  1
  O  O42  1  0.00261467  0.50130733  0.73786733  1
  O  O43  1  0.49869267  0.50130733  0.73786733  1
  O  O44  1  0.49869267  0.99738533  0.73786733  1
