# generated using pymatgen
data_V4O7F5
_symmetry_space_group_name_H-M   'P 1'
_cell_length_a   5.44320500
_cell_length_b   5.29807800
_cell_length_c   7.13414541
_cell_angle_alpha   90.00000000
_cell_angle_beta   92.21313102
_cell_angle_gamma   90.00000000
_symmetry_Int_Tables_number   1
_chemical_formula_structural   V4O7F5
_chemical_formula_sum   'V4 O7 F5'
_cell_volume   205.58476672
_cell_formula_units_Z   1
loop_
 _symmetry_equiv_pos_site_id
 _symmetry_equiv_pos_as_xyz
  1  'x, y, z'
loop_
 _atom_site_type_symbol
 _atom_site_label
 _atom_site_symmetry_multiplicity
 _atom_site_fract_x
 _atom_site_fract_y
 _atom_site_fract_z
 _atom_site_occupancy
  V  V0  1  0.53421300  0.53441500  0.25450000  1
  V  V1  1  0.46578700  0.53441500  0.74550000  1
  V  V2  1  0.04400100  0.01862100  0.25460600  1
  V  V3  1  0.95599900  0.01862100  0.74539400  1
  O  O4  1  0.00000000  0.92442400  0.50000000  1
  O  O5  1  0.69456100  0.78704500  0.20272800  1
  O  O6  1  0.30543900  0.78704500  0.79727200  1
  O  O7  1  0.50000000  0.57730600  0.50000000  1
  O  O8  1  0.71269000  0.19916300  0.70996300  1
  O  O9  1  0.28731000  0.19916300  0.29003700  1
  O  O10  1  0.00000000  0.05623900  0.00000000  1
  F  F11  1  0.79363700  0.69616700  0.79391000  1
  F  F12  1  0.20636300  0.69616700  0.20609000  1
  F  F13  1  0.50000000  0.39193300  0.00000000  1
  F  F14  1  0.79788000  0.28963800  0.29294900  1
  F  F15  1  0.20212000  0.28963800  0.70705100  1
