# generated using pymatgen
data_Na2FeO2
_symmetry_space_group_name_H-M   'P 1'
_cell_length_a   3.00652200
_cell_length_b   10.59281700
_cell_length_c   8.50604000
_cell_angle_alpha   90.00000000
_cell_angle_beta   90.00000000
_cell_angle_gamma   90.00000000
_symmetry_Int_Tables_number   1
_chemical_formula_structural   Na2FeO2
_chemical_formula_sum   'Na8 Fe4 O8'
_cell_volume   270.89642666
_cell_formula_units_Z   4
loop_
 _symmetry_equiv_pos_site_id
 _symmetry_equiv_pos_as_xyz
  1  'x, y, z'
loop_
 _atom_site_type_symbol
 _atom_site_label
 _atom_site_symmetry_multiplicity
 _atom_site_fract_x
 _atom_site_fract_y
 _atom_site_fract_z
 _atom_site_occupancy
  Na  Na0  1  0.50000000  0.14360300  0.66727650  1
  Na  Na1  1  0.00000000  0.35639700  0.16727650  1
  Na  Na2  1  0.50000000  0.39121025  0.84718600  1
  Na  Na3  1  0.00000000  0.10878975  0.34718600  1
  Na  Na4  1  0.00000000  0.64360300  0.66727650  1
  Na  Na5  1  0.50000000  0.85639700  0.16727650  1
  Na  Na6  1  0.00000000  0.89121025  0.84718600  1
  Na  Na7  1  0.50000000  0.60878975  0.34718600  1
  Fe  Fe8  1  0.50000000  0.12252775  0.00377700  1
  Fe  Fe9  1  0.00000000  0.37747225  0.50377700  1
  Fe  Fe10  1  0.00000000  0.62252775  0.00377700  1
  Fe  Fe11  1  0.50000000  0.87747225  0.50377700  1
  O  O12  1  0.50000000  0.27276250  0.40404850  1
  O  O13  1  0.00000000  0.22723750  0.90404850  1
  O  O14  1  0.50000000  0.48486050  0.59262450  1
  O  O15  1  0.00000000  0.01513950  0.09262450  1
  O  O16  1  0.00000000  0.77276250  0.40404850  1
  O  O17  1  0.50000000  0.72723750  0.90404850  1
  O  O18  1  0.00000000  0.98486050  0.59262450  1
  O  O19  1  0.50000000  0.51513950  0.09262450  1
