# generated using pymatgen
data_Li5Mn6(BO3)6
_symmetry_space_group_name_H-M   'P 1'
_cell_length_a   28.46618800
_cell_length_b   6.36997400
_cell_length_c   8.33426750
_cell_angle_alpha   90.00000000
_cell_angle_beta   90.15752072
_cell_angle_gamma   90.00000000
_symmetry_Int_Tables_number   1
_chemical_formula_structural   Li5Mn6(BO3)6
_chemical_formula_sum   'Li20 Mn24 B24 O72'
_cell_volume   1511.23765819
_cell_formula_units_Z   4
loop_
 _symmetry_equiv_pos_site_id
 _symmetry_equiv_pos_as_xyz
  1  'x, y, z'
loop_
 _atom_site_type_symbol
 _atom_site_label
 _atom_site_symmetry_multiplicity
 _atom_site_fract_x
 _atom_site_fract_y
 _atom_site_fract_z
 _atom_site_occupancy
  Li  Li0  1  0.75474200  0.50000000  0.71143300  1
  Li  Li1  1  0.57060500  0.50000000  0.66394600  1
  Li  Li2  1  0.57033700  0.00000000  0.65746100  1
  Li  Li3  1  0.92470900  0.00000000  0.63140900  1
  Li  Li4  1  0.92487500  0.50000000  0.63354500  1
  Li  Li5  1  0.50477900  0.00000000  0.21242800  1
  Li  Li6  1  0.82014700  0.00000000  0.16201000  1
  Li  Li7  1  0.82091100  0.50000000  0.15865300  1
  Li  Li8  1  0.67518000  0.00000000  0.13403100  1
  Li  Li9  1  0.67446000  0.50000000  0.13106900  1
  Li  Li10  1  0.25474200  0.00000000  0.71143300  1
  Li  Li11  1  0.07060500  0.00000000  0.66394600  1
  Li  Li12  1  0.07033700  0.50000000  0.65746100  1
  Li  Li13  1  0.42470900  0.50000000  0.63140900  1
  Li  Li14  1  0.42487500  0.00000000  0.63354500  1
  Li  Li15  1  0.00477900  0.50000000  0.21242800  1
  Li  Li16  1  0.32014700  0.50000000  0.16201000  1
  Li  Li17  1  0.32091100  0.00000000  0.15865300  1
  Li  Li18  1  0.17518000  0.50000000  0.13403100  1
  Li  Li19  1  0.17446000  0.00000000  0.13106900  1
  Mn  Mn20  1  0.99676400  0.75223700  0.87449700  1
  Mn  Mn21  1  0.99676400  0.24776300  0.87449700  1
  Mn  Mn22  1  0.84046300  0.75208700  0.81919600  1
  Mn  Mn23  1  0.84046300  0.24791300  0.81919600  1
  Mn  Mn24  1  0.66359850  0.75420150  0.80593200  1
  Mn  Mn25  1  0.66359850  0.24579850  0.80593200  1
  Mn  Mn26  1  0.74671700  0.24817400  0.37441500  1
  Mn  Mn27  1  0.74671700  0.75182600  0.37441500  1
  Mn  Mn28  1  0.59049200  0.25263800  0.31953700  1
  Mn  Mn29  1  0.59049200  0.74736200  0.31953700  1
  Mn  Mn30  1  0.91379050  0.75312650  0.30524300  1
  Mn  Mn31  1  0.91379050  0.24687350  0.30524300  1
  Mn  Mn32  1  0.49676400  0.25223700  0.87449700  1
  Mn  Mn33  1  0.49676400  0.74776300  0.87449700  1
  Mn  Mn34  1  0.34046300  0.25208700  0.81919600  1
  Mn  Mn35  1  0.34046300  0.74791300  0.81919600  1
  Mn  Mn36  1  0.16359850  0.25420150  0.80593200  1
  Mn  Mn37  1  0.16359850  0.74579850  0.80593200  1
  Mn  Mn38  1  0.24671700  0.74817400  0.37441500  1
  Mn  Mn39  1  0.24671700  0.25182600  0.37441500  1
  Mn  Mn40  1  0.09049200  0.75263800  0.31953700  1
  Mn  Mn41  1  0.09049200  0.24736200  0.31953700  1
  Mn  Mn42  1  0.41379050  0.25312650  0.30524300  1
  Mn  Mn43  1  0.41379050  0.74687350  0.30524300  1
  B  B44  1  0.91646700  0.50000000  0.99834000  1
  B  B45  1  0.91444400  0.00000000  0.99545700  1
  B  B46  1  0.58379500  0.00000000  0.99808800  1
  B  B47  1  0.58526500  0.50000000  0.99152700  1
  B  B48  1  0.99989950  0.25527650  0.50754200  1
  B  B49  1  0.99989950  0.74472350  0.50754200  1
  B  B50  1  0.83444400  0.50000000  0.49713900  1
  B  B51  1  0.66651100  0.50000000  0.49703200  1
  B  B52  1  0.66442400  0.00000000  0.49719100  1
  B  B53  1  0.83467900  0.00000000  0.49194900  1
  B  B54  1  0.74995150  0.74447650  0.00765600  1
  B  B55  1  0.74995150  0.25552350  0.00765600  1
  B  B56  1  0.41646700  0.00000000  0.99834000  1
  B  B57  1  0.41444400  0.50000000  0.99545700  1
  B  B58  1  0.08379500  0.50000000  0.99808800  1
  B  B59  1  0.08526500  0.00000000  0.99152700  1
  B  B60  1  0.49989950  0.75527650  0.50754200  1
  B  B61  1  0.49989950  0.24472350  0.50754200  1
  B  B62  1  0.33444400  0.00000000  0.49713900  1
  B  B63  1  0.16651100  0.00000000  0.49703200  1
  B  B64  1  0.16442400  0.50000000  0.49719100  1
  B  B65  1  0.33467900  0.50000000  0.49194900  1
  B  B66  1  0.24995150  0.24447650  0.00765600  1
  B  B67  1  0.24995150  0.75552350  0.00765600  1
  O  O68  1  0.53481500  0.00000000  0.98874100  1
  O  O69  1  0.86815700  0.50000000  0.98062200  1
  O  O70  1  0.86565500  0.00000000  0.97576800  1
  O  O71  1  0.53750000  0.50000000  0.96238400  1
  O  O72  1  0.94557200  0.50000000  0.86311200  1
  O  O73  1  0.94375200  0.00000000  0.86055700  1
  O  O74  1  0.61556600  0.50000000  0.86074200  1
  O  O75  1  0.77000000  0.27000400  0.85848200  1
  O  O76  1  0.77000000  0.72999600  0.85848200  1
  O  O77  1  0.61066900  0.00000000  0.85999300  1
  O  O78  1  0.85463300  0.50000000  0.64938100  1
  O  O79  1  0.68381700  0.00000000  0.64885700  1
  O  O80  1  0.68765500  0.50000000  0.64773900  1
  O  O81  1  0.85345100  0.00000000  0.64554500  1
  O  O82  1  0.52774700  0.74978600  0.64604700  1
  O  O83  1  0.52774700  0.25021400  0.64604700  1
  O  O84  1  0.95088050  0.25108350  0.52213800  1
  O  O85  1  0.95088050  0.74891650  0.52213800  1
  O  O86  1  0.78548700  0.50000000  0.48604800  1
  O  O87  1  0.61796600  0.50000000  0.48007400  1
  O  O88  1  0.61588400  0.00000000  0.47579700  1
  O  O89  1  0.78681000  0.00000000  0.46455500  1
  O  O90  1  0.69414500  0.00000000  0.36332700  1
  O  O91  1  0.69532300  0.50000000  0.36085600  1
  O  O92  1  0.86207000  0.50000000  0.36066400  1
  O  O93  1  0.86428600  0.00000000  0.35951900  1
  O  O94  1  0.51996400  0.76846300  0.35828000  1
  O  O95  1  0.51996400  0.23153700  0.35828000  1
  O  O96  1  0.93735100  0.50000000  0.15032100  1
  O  O97  1  0.93431000  0.00000000  0.14594300  1
  O  O98  1  0.60477300  0.00000000  0.14848400  1
  O  O99  1  0.60336900  0.50000000  0.14661100  1
  O  O100  1  0.77780700  0.74943400  0.14622400  1
  O  O101  1  0.77780700  0.25056600  0.14622400  1
  O  O102  1  0.70094950  0.24937750  0.02241900  1
  O  O103  1  0.70094950  0.75062250  0.02241900  1
  O  O104  1  0.03481500  0.50000000  0.98874100  1
  O  O105  1  0.36815700  0.00000000  0.98062200  1
  O  O106  1  0.36565500  0.50000000  0.97576800  1
  O  O107  1  0.03750000  0.00000000  0.96238400  1
  O  O108  1  0.44557200  0.00000000  0.86311200  1
  O  O109  1  0.44375200  0.50000000  0.86055700  1
  O  O110  1  0.11556600  0.00000000  0.86074200  1
  O  O111  1  0.27000000  0.77000400  0.85848200  1
  O  O112  1  0.27000000  0.22999600  0.85848200  1
  O  O113  1  0.11066900  0.50000000  0.85999300  1
  O  O114  1  0.35463300  0.00000000  0.64938100  1
  O  O115  1  0.18381700  0.50000000  0.64885700  1
  O  O116  1  0.18765500  0.00000000  0.64773900  1
  O  O117  1  0.35345100  0.50000000  0.64554500  1
  O  O118  1  0.02774700  0.24978600  0.64604700  1
  O  O119  1  0.02774700  0.75021400  0.64604700  1
  O  O120  1  0.45088050  0.75108350  0.52213800  1
  O  O121  1  0.45088050  0.24891650  0.52213800  1
  O  O122  1  0.28548700  0.00000000  0.48604800  1
  O  O123  1  0.11796600  0.00000000  0.48007400  1
  O  O124  1  0.11588400  0.50000000  0.47579700  1
  O  O125  1  0.28681000  0.50000000  0.46455500  1
  O  O126  1  0.19414500  0.50000000  0.36332700  1
  O  O127  1  0.19532300  0.00000000  0.36085600  1
  O  O128  1  0.36207000  0.00000000  0.36066400  1
  O  O129  1  0.36428600  0.50000000  0.35951900  1
  O  O130  1  0.01996400  0.26846300  0.35828000  1
  O  O131  1  0.01996400  0.73153700  0.35828000  1
  O  O132  1  0.43735100  0.00000000  0.15032100  1
  O  O133  1  0.43431000  0.50000000  0.14594300  1
  O  O134  1  0.10477300  0.50000000  0.14848400  1
  O  O135  1  0.10336900  0.00000000  0.14661100  1
  O  O136  1  0.27780700  0.24943400  0.14622400  1
  O  O137  1  0.27780700  0.75056600  0.14622400  1
  O  O138  1  0.20094950  0.74937750  0.02241900  1
  O  O139  1  0.20094950  0.25062250  0.02241900  1
