# generated using pymatgen
data_MnP2H2O7
_symmetry_space_group_name_H-M   'P 1'
_cell_length_a   7.21451035
_cell_length_b   7.93225200
_cell_length_c   9.55495429
_cell_angle_alpha   90.00000000
_cell_angle_beta   100.58853628
_cell_angle_gamma   90.00000000
_symmetry_Int_Tables_number   1
_chemical_formula_structural   MnP2H2O7
_chemical_formula_sum   'Mn4 P8 H8 O28'
_cell_volume   537.49345995
_cell_formula_units_Z   4
loop_
 _symmetry_equiv_pos_site_id
 _symmetry_equiv_pos_as_xyz
  1  'x, y, z'
loop_
 _atom_site_type_symbol
 _atom_site_label
 _atom_site_symmetry_multiplicity
 _atom_site_fract_x
 _atom_site_fract_y
 _atom_site_fract_z
 _atom_site_occupancy
  Mn  Mn0  1  0.00000000  0.00000000  0.50000000  1
  Mn  Mn1  1  0.00000000  0.00000000  0.00000000  1
  Mn  Mn2  1  0.50000000  0.50000000  0.50000000  1
  Mn  Mn3  1  0.50000000  0.50000000  0.00000000  1
  P  P4  1  0.66758075  0.87743375  0.68660875  1
  P  P5  1  0.33241925  0.87743375  0.81339125  1
  P  P6  1  0.66758075  0.12256625  0.18660875  1
  P  P7  1  0.33241925  0.12256625  0.31339125  1
  P  P8  1  0.16758075  0.37743375  0.68660875  1
  P  P9  1  0.83241925  0.37743375  0.81339125  1
  P  P10  1  0.16758075  0.62256625  0.18660875  1
  P  P11  1  0.83241925  0.62256625  0.31339125  1
  H  H12  1  0.70339125  0.20331425  0.64404225  1
  H  H13  1  0.29660875  0.20331425  0.85595775  1
  H  H14  1  0.70339125  0.79668575  0.14404225  1
  H  H15  1  0.29660875  0.79668575  0.35595775  1
  H  H16  1  0.20339125  0.70331425  0.64404225  1
  H  H17  1  0.79660875  0.70331425  0.85595775  1
  H  H18  1  0.20339125  0.29668575  0.14404225  1
  H  H19  1  0.79660875  0.29668575  0.35595775  1
  O  O20  1  0.50000000  0.96957675  0.75000000  1
  O  O21  1  0.50000000  0.03042325  0.25000000  1
  O  O22  1  0.59432925  0.72492275  0.60222225  1
  O  O23  1  0.40567075  0.72492275  0.89777775  1
  O  O24  1  0.59432925  0.27507725  0.10222225  1
  O  O25  1  0.40567075  0.27507725  0.39777775  1
  O  O26  1  0.75445175  0.01784725  0.61188675  1
  O  O27  1  0.24554825  0.01784725  0.88811325  1
  O  O28  1  0.75445175  0.98215275  0.11188675  1
  O  O29  1  0.24554825  0.98215275  0.38811325  1
  O  O30  1  0.18277175  0.82544275  0.67453975  1
  O  O31  1  0.81722825  0.82544275  0.82546025  1
  O  O32  1  0.18277175  0.17455725  0.17453975  1
  O  O33  1  0.81722825  0.17455725  0.32546025  1
  O  O34  1  0.00000000  0.46957675  0.75000000  1
  O  O35  1  0.00000000  0.53042325  0.25000000  1
  O  O36  1  0.09432925  0.22492275  0.60222225  1
  O  O37  1  0.90567075  0.22492275  0.89777775  1
  O  O38  1  0.09432925  0.77507725  0.10222225  1
  O  O39  1  0.90567075  0.77507725  0.39777775  1
  O  O40  1  0.25445175  0.51784725  0.61188675  1
  O  O41  1  0.74554825  0.51784725  0.88811325  1
  O  O42  1  0.25445175  0.48215275  0.11188675  1
  O  O43  1  0.74554825  0.48215275  0.38811325  1
  O  O44  1  0.68277175  0.32544275  0.67453975  1
  O  O45  1  0.31722825  0.32544275  0.82546025  1
  O  O46  1  0.68277175  0.67455725  0.17453975  1
  O  O47  1  0.31722825  0.67455725  0.32546025  1
