# generated using pymatgen
data_Li3V3P8O29
_symmetry_space_group_name_H-M   'P 1'
_cell_length_a   16.81373800
_cell_length_b   9.80140600
_cell_length_c   14.36812871
_cell_angle_alpha   90.00000000
_cell_angle_beta   91.13553588
_cell_angle_gamma   90.00000000
_symmetry_Int_Tables_number   1
_chemical_formula_structural   Li3V3P8O29
_chemical_formula_sum   'Li12 V12 P32 O116'
_cell_volume   2367.37777776
_cell_formula_units_Z   4
loop_
 _symmetry_equiv_pos_site_id
 _symmetry_equiv_pos_as_xyz
  1  'x, y, z'
loop_
 _atom_site_type_symbol
 _atom_site_label
 _atom_site_symmetry_multiplicity
 _atom_site_fract_x
 _atom_site_fract_y
 _atom_site_fract_z
 _atom_site_occupancy
  Li  Li0  1  0.45230900  0.77542800  0.94244500  1
  Li  Li1  1  0.45230900  0.22457200  0.44244500  1
  Li  Li2  1  0.61713950  0.70287250  0.06002500  1
  Li  Li3  1  0.61713950  0.29712750  0.56002500  1
  Li  Li4  1  0.49606750  0.42606050  0.00937600  1
  Li  Li5  1  0.49606750  0.57393950  0.50937600  1
  Li  Li6  1  0.95230900  0.27542800  0.94244500  1
  Li  Li7  1  0.95230900  0.72457200  0.44244500  1
  Li  Li8  1  0.11713950  0.20287250  0.06002500  1
  Li  Li9  1  0.11713950  0.79712750  0.56002500  1
  Li  Li10  1  0.99606750  0.92606050  0.00937600  1
  Li  Li11  1  0.99606750  0.07393950  0.50937600  1
  V  V12  1  0.50152650  0.93542050  0.74714000  1
  V  V13  1  0.50152650  0.06457950  0.24714000  1
  V  V14  1  0.22060100  0.21735000  0.25326700  1
  V  V15  1  0.78165650  0.78324650  0.74870400  1
  V  V16  1  0.22060100  0.78265000  0.75326700  1
  V  V17  1  0.78165650  0.21675350  0.24870400  1
  V  V18  1  0.00152650  0.43542050  0.74714000  1
  V  V19  1  0.00152650  0.56457950  0.24714000  1
  V  V20  1  0.72060100  0.71735000  0.25326700  1
  V  V21  1  0.28165650  0.28324650  0.74870400  1
  V  V22  1  0.72060100  0.28265000  0.75326700  1
  V  V23  1  0.28165650  0.71675350  0.24870400  1
  P  P24  1  0.14940000  0.93343800  0.16290700  1
  P  P25  1  0.14940000  0.06656200  0.66290700  1
  P  P26  1  0.38832650  0.69477050  0.65729500  1
  P  P27  1  0.33600200  0.00166700  0.86662800  1
  P  P28  1  0.33600200  0.99833300  0.36662800  1
  P  P29  1  0.45441450  0.77095650  0.15832200  1
  P  P30  1  0.54465150  0.76708650  0.33777200  1
  P  P31  1  0.38832650  0.30522950  0.15729500  1
  P  P32  1  0.61360650  0.70044750  0.84419100  1
  P  P33  1  0.45441450  0.22904350  0.65832200  1
  P  P34  1  0.54465150  0.23291350  0.83777200  1
  P  P35  1  0.66629950  0.00363650  0.63278200  1
  P  P36  1  0.66629950  0.99636350  0.13278200  1
  P  P37  1  0.61360650  0.29955250  0.34419100  1
  P  P38  1  0.84951350  0.93508050  0.33828100  1
  P  P39  1  0.84951350  0.06491950  0.83828100  1
  P  P40  1  0.64940000  0.43343800  0.16290700  1
  P  P41  1  0.64940000  0.56656200  0.66290700  1
  P  P42  1  0.88832650  0.19477050  0.65729500  1
  P  P43  1  0.83600200  0.50166700  0.86662800  1
  P  P44  1  0.83600200  0.49833300  0.36662800  1
  P  P45  1  0.95441450  0.27095650  0.15832200  1
  P  P46  1  0.04465150  0.26708650  0.33777200  1
  P  P47  1  0.88832650  0.80522950  0.15729500  1
  P  P48  1  0.11360650  0.20044750  0.84419100  1
  P  P49  1  0.95441450  0.72904350  0.65832200  1
  P  P50  1  0.04465150  0.73291350  0.83777200  1
  P  P51  1  0.16629950  0.50363650  0.63278200  1
  P  P52  1  0.16629950  0.49636350  0.13278200  1
  P  P53  1  0.11360650  0.79955250  0.34419100  1
  P  P54  1  0.34951350  0.43508050  0.33828100  1
  P  P55  1  0.34951350  0.56491950  0.83828100  1
  O  O56  1  0.61220750  0.36906150  0.43594400  1
  O  O57  1  0.17103950  0.91095950  0.66550600  1
  O  O58  1  0.61220750  0.63093850  0.93594400  1
  O  O59  1  0.17103950  0.08904050  0.16550600  1
  O  O60  1  0.22729400  0.84780000  0.17232400  1
  O  O61  1  0.26215300  0.92469100  0.81827900  1
  O  O62  1  0.30759600  0.76806900  0.67040800  1
  O  O63  1  0.39877900  0.60437500  0.92087600  1
  O  O64  1  0.36916400  0.71388100  0.16491800  1
  O  O65  1  0.26215300  0.07530900  0.31827900  1
  O  O66  1  0.22729400  0.15220000  0.67232400  1
  O  O67  1  0.33266950  0.85419250  0.31886400  1
  O  O68  1  0.33199300  0.99890700  0.96935500  1
  O  O69  1  0.33199300  0.00109300  0.46935500  1
  O  O70  1  0.40989350  0.92280750  0.82953900  1
  O  O71  1  0.30759600  0.23193100  0.17040800  1
  O  O72  1  0.33266950  0.14580750  0.81886400  1
  O  O73  1  0.45529800  0.80404900  0.67257800  1
  O  O74  1  0.50383250  0.70473850  0.24325200  1
  O  O75  1  0.50491000  0.71265900  0.41999400  1
  O  O76  1  0.49552700  0.73645600  0.06957300  1
  O  O77  1  0.45184750  0.92772750  0.17580000  1
  O  O78  1  0.40989350  0.07719250  0.32953900  1
  O  O79  1  0.54134600  0.80018400  0.83513500  1
  O  O80  1  0.45184750  0.07227250  0.67580000  1
  O  O81  1  0.36916400  0.28611900  0.66491800  1
  O  O82  1  0.10341550  0.09289050  0.76032900  1
  O  O83  1  0.09584200  0.09492000  0.58263400  1
  O  O84  1  0.39877900  0.39562500  0.42087600  1
  O  O85  1  0.63277800  0.71983900  0.32950000  1
  O  O86  1  0.54194800  0.92417900  0.32566500  1
  O  O87  1  0.45529800  0.19595100  0.17257800  1
  O  O88  1  0.59222550  0.93048750  0.68029600  1
  O  O89  1  0.54194800  0.07582100  0.82566500  1
  O  O90  1  0.50491000  0.28734100  0.91999400  1
  O  O91  1  0.49552700  0.26354400  0.56957300  1
  O  O92  1  0.50383250  0.29526150  0.74325200  1
  O  O93  1  0.54134600  0.19981600  0.33513500  1
  O  O94  1  0.66448250  0.84742650  0.17237800  1
  O  O95  1  0.69147250  0.78007850  0.82445700  1
  O  O96  1  0.59222550  0.06951250  0.18029600  1
  O  O97  1  0.66099300  0.99916000  0.02991900  1
  O  O98  1  0.66099300  0.00084000  0.52991900  1
  O  O99  1  0.66448250  0.15257350  0.67237800  1
  O  O100  1  0.77013850  0.85260550  0.32573700  1
  O  O101  1  0.73960950  0.92825650  0.67849100  1
  O  O102  1  0.63277800  0.28016100  0.82950000  1
  O  O103  1  0.10341550  0.90710950  0.26032900  1
  O  O104  1  0.09584200  0.90508000  0.08263400  1
  O  O105  1  0.69147250  0.21992150  0.32445700  1
  O  O106  1  0.73960950  0.07174350  0.17849100  1
  O  O107  1  0.77013850  0.14739450  0.82573700  1
  O  O108  1  0.82953850  0.91079450  0.83239000  1
  O  O109  1  0.39929500  0.38363200  0.07112300  1
  O  O110  1  0.89923850  0.90512650  0.24585500  1
  O  O111  1  0.82953850  0.08920550  0.33239000  1
  O  O112  1  0.39929500  0.61636800  0.57112300  1
  O  O113  1  0.89923850  0.09487350  0.74585500  1
  O  O114  1  0.11220750  0.86906150  0.43594400  1
  O  O115  1  0.67103950  0.41095950  0.66550600  1
  O  O116  1  0.11220750  0.13093850  0.93594400  1
  O  O117  1  0.67103950  0.58904050  0.16550600  1
  O  O118  1  0.72729400  0.34780000  0.17232400  1
  O  O119  1  0.76215300  0.42469100  0.81827900  1
  O  O120  1  0.80759600  0.26806900  0.67040800  1
  O  O121  1  0.89877900  0.10437500  0.92087600  1
  O  O122  1  0.86916400  0.21388100  0.16491800  1
  O  O123  1  0.76215300  0.57530900  0.31827900  1
  O  O124  1  0.72729400  0.65220000  0.67232400  1
  O  O125  1  0.83266950  0.35419250  0.31886400  1
  O  O126  1  0.83199300  0.49890700  0.96935500  1
  O  O127  1  0.83199300  0.50109300  0.46935500  1
  O  O128  1  0.90989350  0.42280750  0.82953900  1
  O  O129  1  0.80759600  0.73193100  0.17040800  1
  O  O130  1  0.83266950  0.64580750  0.81886400  1
  O  O131  1  0.95529800  0.30404900  0.67257800  1
  O  O132  1  0.00383250  0.20473850  0.24325200  1
  O  O133  1  0.00491000  0.21265900  0.41999400  1
  O  O134  1  0.99552700  0.23645600  0.06957300  1
  O  O135  1  0.95184750  0.42772750  0.17580000  1
  O  O136  1  0.90989350  0.57719250  0.32953900  1
  O  O137  1  0.04134600  0.30018400  0.83513500  1
  O  O138  1  0.95184750  0.57227250  0.67580000  1
  O  O139  1  0.86916400  0.78611900  0.66491800  1
  O  O140  1  0.60341550  0.59289050  0.76032900  1
  O  O141  1  0.59584200  0.59492000  0.58263400  1
  O  O142  1  0.89877900  0.89562500  0.42087600  1
  O  O143  1  0.13277800  0.21983900  0.32950000  1
  O  O144  1  0.04194800  0.42417900  0.32566500  1
  O  O145  1  0.95529800  0.69595100  0.17257800  1
  O  O146  1  0.09222550  0.43048750  0.68029600  1
  O  O147  1  0.04194800  0.57582100  0.82566500  1
  O  O148  1  0.00491000  0.78734100  0.91999400  1
  O  O149  1  0.99552700  0.76354400  0.56957300  1
  O  O150  1  0.00383250  0.79526150  0.74325200  1
  O  O151  1  0.04134600  0.69981600  0.33513500  1
  O  O152  1  0.16448250  0.34742650  0.17237800  1
  O  O153  1  0.19147250  0.28007850  0.82445700  1
  O  O154  1  0.09222550  0.56951250  0.18029600  1
  O  O155  1  0.16099300  0.49916000  0.02991900  1
  O  O156  1  0.16099300  0.50084000  0.52991900  1
  O  O157  1  0.16448250  0.65257350  0.67237800  1
  O  O158  1  0.27013850  0.35260550  0.32573700  1
  O  O159  1  0.23960950  0.42825650  0.67849100  1
  O  O160  1  0.13277800  0.78016100  0.82950000  1
  O  O161  1  0.60341550  0.40710950  0.26032900  1
  O  O162  1  0.59584200  0.40508000  0.08263400  1
  O  O163  1  0.19147250  0.71992150  0.32445700  1
  O  O164  1  0.23960950  0.57174350  0.17849100  1
  O  O165  1  0.27013850  0.64739450  0.82573700  1
  O  O166  1  0.32953850  0.41079450  0.83239000  1
  O  O167  1  0.89929500  0.88363200  0.07112300  1
  O  O168  1  0.39923850  0.40512650  0.24585500  1
  O  O169  1  0.32953850  0.58920550  0.33239000  1
  O  O170  1  0.89929500  0.11636800  0.57112300  1
  O  O171  1  0.39923850  0.59487350  0.74585500  1
