# generated using pymatgen
data_Li3(CoO2)4
_symmetry_space_group_name_H-M   'P 1'
_cell_length_a   5.77987282
_cell_length_b   5.77987282
_cell_length_c   14.76103755
_cell_angle_alpha   90.00000000
_cell_angle_beta   90.00000000
_cell_angle_gamma   120.00000000
_symmetry_Int_Tables_number   1
_chemical_formula_structural   Li3(CoO2)4
_chemical_formula_sum   'Li9 Co12 O24'
_cell_volume   427.05526635
_cell_formula_units_Z   3
loop_
 _symmetry_equiv_pos_site_id
 _symmetry_equiv_pos_as_xyz
  1  'x, y, z'
loop_
 _atom_site_type_symbol
 _atom_site_label
 _atom_site_symmetry_multiplicity
 _atom_site_fract_x
 _atom_site_fract_y
 _atom_site_fract_z
 _atom_site_occupancy
  Li  Li0  1  0.50000000  0.50000000  0.00000000  1
  Li  Li1  1  0.50000000  0.00000000  0.00000000  1
  Li  Li2  1  0.00000000  0.50000000  0.00000000  1
  Li  Li3  1  0.16666667  0.83333333  0.33333333  1
  Li  Li4  1  0.16666667  0.33333333  0.33333333  1
  Li  Li5  1  0.66666667  0.83333333  0.33333333  1
  Li  Li6  1  0.83333333  0.16666667  0.66666667  1
  Li  Li7  1  0.83333333  0.66666667  0.66666667  1
  Li  Li8  1  0.33333333  0.16666667  0.66666667  1
  Co  Co9  1  0.66666667  0.33333333  0.83333333  1
  Co  Co10  1  0.16666667  0.33333333  0.83333333  1
  Co  Co11  1  0.66666667  0.83333333  0.83333333  1
  Co  Co12  1  0.16666667  0.83333333  0.83333333  1
  Co  Co13  1  0.33333333  0.66666667  0.16666667  1
  Co  Co14  1  0.83333333  0.66666667  0.16666667  1
  Co  Co15  1  0.33333333  0.16666667  0.16666667  1
  Co  Co16  1  0.83333333  0.16666667  0.16666667  1
  Co  Co17  1  1.00000000  1.00000000  0.50000000  1
  Co  Co18  1  0.50000000  0.00000000  0.50000000  1
  Co  Co19  1  0.00000000  0.50000000  0.50000000  1
  Co  Co20  1  0.50000000  0.50000000  0.50000000  1
  O  O21  1  0.00000000  0.00000000  0.75774733  1
  O  O22  1  0.33333333  0.66666667  0.90891933  1
  O  O23  1  0.50803908  0.49196092  0.76052417  1
  O  O24  1  0.82529425  0.65058850  0.90614250  1
  O  O25  1  0.98392183  0.49196092  0.76052417  1
  O  O26  1  0.34941150  0.17470575  0.90614250  1
  O  O27  1  0.50803908  0.01607817  0.76052417  1
  O  O28  1  0.82529425  0.17470575  0.90614250  1
  O  O29  1  0.66666667  0.33333333  0.09108067  1
  O  O30  1  0.00000000  0.00000000  0.24225267  1
  O  O31  1  0.17470575  0.82529425  0.09385750  1
  O  O32  1  0.49196092  0.98392183  0.23947583  1
  O  O33  1  0.65058850  0.82529425  0.09385750  1
  O  O34  1  0.01607817  0.50803908  0.23947583  1
  O  O35  1  0.17470575  0.34941150  0.09385750  1
  O  O36  1  0.49196092  0.50803908  0.23947583  1
  O  O37  1  0.33333333  0.66666667  0.42441400  1
  O  O38  1  0.66666667  0.33333333  0.57558600  1
  O  O39  1  0.84137242  0.15862758  0.42719083  1
  O  O40  1  0.15862758  0.31725517  0.57280917  1
  O  O41  1  0.31725517  0.15862758  0.42719083  1
  O  O42  1  0.68274483  0.84137242  0.57280917  1
  O  O43  1  0.84137242  0.68274483  0.42719083  1
  O  O44  1  0.15862758  0.84137242  0.57280917  1
