# generated using pymatgen
data_Ti3O5
_symmetry_space_group_name_H-M   'P 1'
_cell_length_a   3.79649200
_cell_length_b   9.89529000
_cell_length_c   10.07120800
_cell_angle_alpha   90.00000000
_cell_angle_beta   90.00000000
_cell_angle_gamma   90.00000000
_symmetry_Int_Tables_number   1
_chemical_formula_structural   Ti3O5
_chemical_formula_sum   'Ti12 O20'
_cell_volume   378.34899189
_cell_formula_units_Z   4
loop_
 _symmetry_equiv_pos_site_id
 _symmetry_equiv_pos_as_xyz
  1  'x, y, z'
loop_
 _atom_site_type_symbol
 _atom_site_label
 _atom_site_symmetry_multiplicity
 _atom_site_fract_x
 _atom_site_fract_y
 _atom_site_fract_z
 _atom_site_occupancy
  Ti  Ti0  1  0.00000000  0.30171200  0.75000000  1
  Ti  Ti1  1  0.50000000  0.19828800  0.25000000  1
  Ti  Ti2  1  0.50000000  0.13060200  0.55727700  1
  Ti  Ti3  1  0.00000000  0.36939800  0.44272300  1
  Ti  Ti4  1  0.00000000  0.36939800  0.05727700  1
  Ti  Ti5  1  0.50000000  0.13060200  0.94272300  1
  Ti  Ti6  1  0.50000000  0.80171200  0.75000000  1
  Ti  Ti7  1  0.00000000  0.69828800  0.25000000  1
  Ti  Ti8  1  0.00000000  0.63060200  0.55727700  1
  Ti  Ti9  1  0.50000000  0.86939800  0.44272300  1
  Ti  Ti10  1  0.50000000  0.86939800  0.05727700  1
  Ti  Ti11  1  0.00000000  0.63060200  0.94272300  1
  O  O12  1  0.00000000  0.26748300  0.25000000  1
  O  O13  1  0.50000000  0.23251700  0.75000000  1
  O  O14  1  0.50000000  0.05148300  0.37731300  1
  O  O15  1  0.00000000  0.44851700  0.62268700  1
  O  O16  1  0.00000000  0.44851700  0.87731300  1
  O  O17  1  0.50000000  0.05148300  0.12268700  1
  O  O18  1  0.00000000  0.18292800  0.93098000  1
  O  O19  1  0.50000000  0.31707200  0.06902000  1
  O  O20  1  0.50000000  0.31707200  0.43098000  1
  O  O21  1  0.00000000  0.18292800  0.56902000  1
  O  O22  1  0.50000000  0.76748300  0.25000000  1
  O  O23  1  0.00000000  0.73251700  0.75000000  1
  O  O24  1  0.00000000  0.55148300  0.37731300  1
  O  O25  1  0.50000000  0.94851700  0.62268700  1
  O  O26  1  0.50000000  0.94851700  0.87731300  1
  O  O27  1  0.00000000  0.55148300  0.12268700  1
  O  O28  1  0.50000000  0.68292800  0.93098000  1
  O  O29  1  0.00000000  0.81707200  0.06902000  1
  O  O30  1  0.00000000  0.81707200  0.43098000  1
  O  O31  1  0.50000000  0.68292800  0.56902000  1
