# generated using pymatgen
data_Sr(PRh)2
_symmetry_space_group_name_H-M   'P 1'
_cell_length_a   3.97356000
_cell_length_b   3.97356000
_cell_length_c   11.87245800
_cell_angle_alpha   90.00000000
_cell_angle_beta   90.00000000
_cell_angle_gamma   90.00000000
_symmetry_Int_Tables_number   1
_chemical_formula_structural   Sr(PRh)2
_chemical_formula_sum   'Sr2 P4 Rh4'
_cell_volume   187.45636541
_cell_formula_units_Z   2
loop_
 _symmetry_equiv_pos_site_id
 _symmetry_equiv_pos_as_xyz
  1  'x, y, z'
loop_
 _atom_site_type_symbol
 _atom_site_label
 _atom_site_symmetry_multiplicity
 _atom_site_fract_x
 _atom_site_fract_y
 _atom_site_fract_z
 _atom_site_occupancy
  Sr  Sr0  1  0.00000000  0.00000000  0.00000000  1
  Sr  Sr1  1  0.50000000  0.50000000  0.50000000  1
  P  P2  1  0.50000000  0.50000000  0.14106200  1
  P  P3  1  0.00000000  0.00000000  0.35893800  1
  P  P4  1  0.00000000  0.00000000  0.64106200  1
  P  P5  1  0.50000000  0.50000000  0.85893800  1
  Rh  Rh6  1  0.50000000  0.00000000  0.25000000  1
  Rh  Rh7  1  0.00000000  0.50000000  0.25000000  1
  Rh  Rh8  1  0.00000000  0.50000000  0.75000000  1
  Rh  Rh9  1  0.50000000  0.00000000  0.75000000  1
