# generated using pymatgen
data_V6O11F
_symmetry_space_group_name_H-M   'P 1'
_cell_length_a   8.89117800
_cell_length_b   6.40575400
_cell_length_c   7.23141351
_cell_angle_alpha   90.00000000
_cell_angle_beta   112.71501200
_cell_angle_gamma   90.00000000
_symmetry_Int_Tables_number   1
_chemical_formula_structural   V6O11F
_chemical_formula_sum   'V12 O22 F2'
_cell_volume   379.91762989
_cell_formula_units_Z   2
loop_
 _symmetry_equiv_pos_site_id
 _symmetry_equiv_pos_as_xyz
  1  'x, y, z'
loop_
 _atom_site_type_symbol
 _atom_site_label
 _atom_site_symmetry_multiplicity
 _atom_site_fract_x
 _atom_site_fract_y
 _atom_site_fract_z
 _atom_site_occupancy
  V  V0  1  0.17326900  0.50000000  0.16951600  1
  V  V1  1  0.83937600  0.50000000  0.33168900  1
  V  V2  1  0.15115200  0.50000000  0.66974300  1
  V  V3  1  0.83077100  0.50000000  0.84181200  1
  V  V4  1  0.50449400  0.50000000  0.48926400  1
  V  V5  1  0.50166600  0.50000000  0.01444500  1
  V  V6  1  0.67326900  0.00000000  0.16951600  1
  V  V7  1  0.33937600  0.00000000  0.33168900  1
  V  V8  1  0.65115200  0.00000000  0.66974300  1
  V  V9  1  0.33077100  0.00000000  0.84181200  1
  V  V10  1  0.00449400  0.00000000  0.48926400  1
  V  V11  1  0.00166600  0.00000000  0.01444500  1
  O  O12  1  0.82604250  0.19890450  0.32588600  1
  O  O13  1  0.17106800  0.20523400  0.67172600  1
  O  O14  1  0.73726500  0.50000000  0.03192700  1
  O  O15  1  0.05906300  0.50000000  0.36502800  1
  O  O16  1  0.60699500  0.50000000  0.29683200  1
  O  O17  1  0.26913400  0.50000000  0.96663100  1
  O  O18  1  0.92746200  0.50000000  0.63161600  1
  O  O19  1  0.00310550  0.29666350  0.99823600  1
  O  O20  1  0.82604250  0.80109550  0.32588600  1
  O  O21  1  0.17106800  0.79476600  0.67172600  1
  O  O22  1  0.00310550  0.70333650  0.99823600  1
  O  O23  1  0.32604250  0.69890450  0.32588600  1
  O  O24  1  0.67106800  0.70523400  0.67172600  1
  O  O25  1  0.23726500  0.00000000  0.03192700  1
  O  O26  1  0.55906300  0.00000000  0.36502800  1
  O  O27  1  0.10699500  0.00000000  0.29683200  1
  O  O28  1  0.76913400  0.00000000  0.96663100  1
  O  O29  1  0.42746200  0.00000000  0.63161600  1
  O  O30  1  0.50310550  0.79666350  0.99823600  1
  O  O31  1  0.32604250  0.30109550  0.32588600  1
  O  O32  1  0.67106800  0.29476600  0.67172600  1
  O  O33  1  0.50310550  0.20333650  0.99823600  1
  F  F34  1  0.39892000  0.50000000  0.69979900  1
  F  F35  1  0.89892000  0.00000000  0.69979900  1
