# generated using pymatgen
data_Fe3Ni2P6WO24
_symmetry_space_group_name_H-M   'P 1'
_cell_length_a   8.65738757
_cell_length_b   8.65738757
_cell_length_c   20.75998276
_cell_angle_alpha   90.00000000
_cell_angle_beta   90.00000000
_cell_angle_gamma   120.00000000
_symmetry_Int_Tables_number   1
_chemical_formula_structural   Fe3Ni2P6WO24
_chemical_formula_sum   'Fe9 Ni6 P18 W3 O72'
_cell_volume   1347.50796569
_cell_formula_units_Z   3
loop_
 _symmetry_equiv_pos_site_id
 _symmetry_equiv_pos_as_xyz
  1  'x, y, z'
loop_
 _atom_site_type_symbol
 _atom_site_label
 _atom_site_symmetry_multiplicity
 _atom_site_fract_x
 _atom_site_fract_y
 _atom_site_fract_z
 _atom_site_occupancy
  Fe  Fe0  1  0.33333333  0.66666667  0.02343433  1
  Fe  Fe1  1  0.33333333  0.66666667  0.81170033  1
  Fe  Fe2  1  0.33333333  0.66666667  0.31027667  1
  Fe  Fe3  1  0.00000000  0.00000000  0.35676767  1
  Fe  Fe4  1  0.00000000  0.00000000  0.14503367  1
  Fe  Fe5  1  0.00000000  0.00000000  0.64361000  1
  Fe  Fe6  1  0.66666667  0.33333333  0.69010100  1
  Fe  Fe7  1  0.66666667  0.33333333  0.47836700  1
  Fe  Fe8  1  0.66666667  0.33333333  0.97694333  1
  Ni  Ni9  1  0.33333333  0.66666667  0.67211500  1
  Ni  Ni10  1  0.33333333  0.66666667  0.16768000  1
  Ni  Ni11  1  0.00000000  0.00000000  0.00544833  1
  Ni  Ni12  1  0.00000000  0.00000000  0.50101333  1
  Ni  Ni13  1  0.66666667  0.33333333  0.33878167  1
  Ni  Ni14  1  0.66666667  0.33333333  0.83434667  1
  P  P15  1  0.96596833  0.63093567  0.08127967  1
  P  P16  1  0.36906433  0.33503267  0.08127967  1
  P  P17  1  0.66496733  0.03403167  0.08127967  1
  P  P18  1  0.00582500  0.29542200  0.24971400  1
  P  P19  1  0.28959700  0.99417500  0.24971400  1
  P  P20  1  0.70457800  0.71040300  0.24971400  1
  P  P21  1  0.63263500  0.96426900  0.41461300  1
  P  P22  1  0.03573100  0.66836600  0.41461300  1
  P  P23  1  0.33163400  0.36736500  0.41461300  1
  P  P24  1  0.67249167  0.62875533  0.58304733  1
  P  P25  1  0.95626367  0.32750833  0.58304733  1
  P  P26  1  0.37124467  0.04373633  0.58304733  1
  P  P27  1  0.29930167  0.29760233  0.74794633  1
  P  P28  1  0.70239767  0.00169933  0.74794633  1
  P  P29  1  0.99830067  0.70069833  0.74794633  1
  P  P30  1  0.33915833  0.96208867  0.91638067  1
  P  P31  1  0.62293033  0.66084167  0.91638067  1
  P  P32  1  0.03791133  0.37706967  0.91638067  1
  W  W33  1  0.33333333  0.66666667  0.52429867  1
  W  W34  1  0.00000000  0.00000000  0.85763200  1
  W  W35  1  0.66666667  0.33333333  0.19096533  1
  O  O36  1  0.14239967  0.67743733  0.35565833  1
  O  O37  1  0.32256267  0.46496233  0.35565833  1
  O  O38  1  0.53503767  0.85760033  0.35565833  1
  O  O39  1  0.98413967  0.81788333  0.07538633  1
  O  O40  1  0.52296267  0.86644933  0.47698833  1
  O  O41  1  0.14975733  0.64654267  0.09326567  1
  O  O42  1  0.18211667  0.16625633  0.07538633  1
  O  O43  1  0.35345733  0.50321467  0.09326567  1
  O  O44  1  0.99082333  0.19209467  0.18870767  1
  O  O45  1  0.49678533  0.85024267  0.09326567  1
  O  O46  1  0.83467400  0.32127200  0.25656900  1
  O  O47  1  0.20127133  0.00917667  0.18870767  1
  O  O48  1  0.13355067  0.65651333  0.47698833  1
  O  O49  1  0.83374367  0.01586033  0.07538633  1
  O  O50  1  0.16792400  0.48551900  0.24160800  1
  O  O51  1  0.34348667  0.47703733  0.47698833  1
  O  O52  1  0.31759500  0.83207600  0.24160800  1
  O  O53  1  0.48659800  0.16532600  0.25656900  1
  O  O54  1  0.51448100  0.68240500  0.24160800  1
  O  O55  1  0.80790533  0.79872867  0.18870767  1
  O  O56  1  0.67872800  0.51340200  0.25656900  1
  O  O57  1  0.13514000  0.47019700  0.97765900  1
  O  O58  1  0.33505700  0.86486000  0.97765900  1
  O  O59  1  0.52980300  0.66494300  0.97765900  1
  O  O60  1  0.80906633  0.01077067  0.68899167  1
  O  O61  1  0.98922933  0.79829567  0.68899167  1
  O  O62  1  0.20170433  0.19093367  0.68899167  1
  O  O63  1  0.65080633  0.15121667  0.40871967  1
  O  O64  1  0.18962933  0.19978267  0.81032167  1
  O  O65  1  0.81642400  0.97987600  0.42659900  1
  O  O66  1  0.84878333  0.49958967  0.40871967  1
  O  O67  1  0.02012400  0.83654800  0.42659900  1
  O  O68  1  0.65749000  0.52542800  0.52204100  1
  O  O69  1  0.16345200  0.18357600  0.42659900  1
  O  O70  1  0.50134067  0.65460533  0.58990233  1
  O  O71  1  0.86793800  0.34251000  0.52204100  1
  O  O72  1  0.80021733  0.98984667  0.81032167  1
  O  O73  1  0.50041033  0.34919367  0.40871967  1
  O  O74  1  0.83459067  0.81885233  0.57494133  1
  O  O75  1  0.01015333  0.81037067  0.81032167  1
  O  O76  1  0.98426167  0.16540933  0.57494133  1
  O  O77  1  0.15326467  0.49865933  0.58990233  1
  O  O78  1  0.18114767  0.01573833  0.57494133  1
  O  O79  1  0.47457200  0.13206200  0.52204100  1
  O  O80  1  0.34539467  0.84673533  0.58990233  1
  O  O81  1  0.80180667  0.80353033  0.31099233  1
  O  O82  1  0.00172367  0.19819333  0.31099233  1
  O  O83  1  0.19646967  0.99827633  0.31099233  1
  O  O84  1  0.47573300  0.34410400  0.02232500  1
  O  O85  1  0.65589600  0.13162900  0.02232500  1
  O  O86  1  0.86837100  0.52426700  0.02232500  1
  O  O87  1  0.31747300  0.48455000  0.74205300  1
  O  O88  1  0.85629600  0.53311600  0.14365500  1
  O  O89  1  0.48309067  0.31320933  0.75993233  1
  O  O90  1  0.51545000  0.83292300  0.74205300  1
  O  O91  1  0.68679067  0.16988133  0.75993233  1
  O  O92  1  0.32415667  0.85876133  0.85537433  1
  O  O93  1  0.83011867  0.51690933  0.75993233  1
  O  O94  1  0.16800733  0.98793867  0.92323567  1
  O  O95  1  0.53460467  0.67584333  0.85537433  1
  O  O96  1  0.46688400  0.32318000  0.14365500  1
  O  O97  1  0.16707700  0.68252700  0.74205300  1
  O  O98  1  0.50125733  0.15218567  0.90827467  1
  O  O99  1  0.67682000  0.14370400  0.14365500  1
  O  O100  1  0.65092833  0.49874267  0.90827467  1
  O  O101  1  0.81993133  0.83199267  0.92323567  1
  O  O102  1  0.84781433  0.34907167  0.90827467  1
  O  O103  1  0.14123867  0.46539533  0.85537433  1
  O  O104  1  0.01206133  0.18006867  0.92323567  1
  O  O105  1  0.46847333  0.13686367  0.64432567  1
  O  O106  1  0.66839033  0.53152667  0.64432567  1
  O  O107  1  0.86313633  0.33160967  0.64432567  1
