# generated using pymatgen
data_NbCr3(PO4)6
_symmetry_space_group_name_H-M   'P 1'
_cell_length_a   8.63043598
_cell_length_b   8.63043598
_cell_length_c   21.93671672
_cell_angle_alpha   90.00000000
_cell_angle_beta   90.00000000
_cell_angle_gamma   120.00000000
_symmetry_Int_Tables_number   1
_chemical_formula_structural   NbCr3(PO4)6
_chemical_formula_sum   'Nb3 Cr9 P18 O72'
_cell_volume   1415.03678323
_cell_formula_units_Z   3
loop_
 _symmetry_equiv_pos_site_id
 _symmetry_equiv_pos_as_xyz
  1  'x, y, z'
loop_
 _atom_site_type_symbol
 _atom_site_label
 _atom_site_symmetry_multiplicity
 _atom_site_fract_x
 _atom_site_fract_y
 _atom_site_fract_z
 _atom_site_occupancy
  Nb  Nb0  1  0.66666667  0.33333333  0.19389433  1
  Nb  Nb1  1  0.33333333  0.66666667  0.52722767  1
  Nb  Nb2  1  0.00000000  0.00000000  0.86056100  1
  Cr  Cr3  1  0.00000000  0.00000000  0.14329100  1
  Cr  Cr4  1  0.33333333  0.66666667  0.02388567  1
  Cr  Cr5  1  0.33333333  0.66666667  0.30954267  1
  Cr  Cr6  1  0.66666667  0.33333333  0.47662433  1
  Cr  Cr7  1  0.00000000  0.00000000  0.35721900  1
  Cr  Cr8  1  0.00000000  0.00000000  0.64287600  1
  Cr  Cr9  1  0.33333333  0.66666667  0.80995767  1
  Cr  Cr10  1  0.66666667  0.33333333  0.69055233  1
  Cr  Cr11  1  0.66666667  0.33333333  0.97620933  1
  P  P12  1  0.37823967  0.04606033  0.08203533  1
  P  P13  1  0.66782067  0.62176033  0.08203533  1
  P  P14  1  0.95393967  0.33217933  0.08203533  1
  P  P15  1  0.71630133  0.99150067  0.25100167  1
  P  P16  1  0.00849933  0.72480067  0.25100167  1
  P  P17  1  0.27519933  0.28369867  0.25100167  1
  P  P18  1  0.04490633  0.37939367  0.41536867  1
  P  P19  1  0.33448733  0.95509367  0.41536867  1
  P  P20  1  0.62060633  0.66551267  0.41536867  1
  P  P21  1  0.38296800  0.32483400  0.58433500  1
  P  P22  1  0.67516600  0.05813400  0.58433500  1
  P  P23  1  0.94186600  0.61703200  0.58433500  1
  P  P24  1  0.71157300  0.71272700  0.74870200  1
  P  P25  1  0.00115400  0.28842700  0.74870200  1
  P  P26  1  0.28727300  0.99884600  0.74870200  1
  P  P27  1  0.04963467  0.65816733  0.91766833  1
  P  P28  1  0.34183267  0.39146733  0.91766833  1
  P  P29  1  0.60853267  0.95036533  0.91766833  1
  O  O30  1  0.19579967  0.17012133  0.30836033  1
  O  O31  1  0.82987867  0.02567833  0.30836033  1
  O  O32  1  0.19101367  0.02410233  0.08877033  1
  O  O33  1  0.97432167  0.80420033  0.30836033  1
  O  O34  1  0.35780367  0.85909533  0.07624333  1
  O  O35  1  0.49397567  0.13314333  0.13951633  1
  O  O36  1  0.83308867  0.80898633  0.08877033  1
  O  O37  1  0.50129167  0.64219633  0.07624333  1
  O  O38  1  0.14090467  0.49870833  0.07624333  1
  O  O39  1  0.80052667  0.96896633  0.19279533  1
  O  O40  1  0.69595733  0.16076867  0.24406567  1
  O  O41  1  0.03103367  0.83156033  0.19279533  1
  O  O42  1  0.63916767  0.50602433  0.13951633  1
  O  O43  1  0.97589767  0.16691133  0.08877033  1
  O  O44  1  0.86685667  0.36083233  0.13951633  1
  O  O45  1  0.52903533  0.82882667  0.25725767  1
  O  O46  1  0.17117333  0.70020867  0.25725767  1
  O  O47  1  0.83923133  0.53518867  0.24406567  1
  O  O48  1  0.16843967  0.19947333  0.19279533  1
  O  O49  1  0.29979133  0.47096467  0.25725767  1
  O  O50  1  0.69586300  0.53518300  0.02530400  1
  O  O51  1  0.46481133  0.30404267  0.24406567  1
  O  O52  1  0.83932000  0.30413700  0.02530400  1
  O  O53  1  0.46481700  0.16068000  0.02530400  1
  O  O54  1  0.86246633  0.50345467  0.64169367  1
  O  O55  1  0.49654533  0.35901167  0.64169367  1
  O  O56  1  0.85768033  0.35743567  0.42210367  1
  O  O57  1  0.64098833  0.13753367  0.64169367  1
  O  O58  1  0.02447033  0.19242867  0.40957667  1
  O  O59  1  0.16064233  0.46647667  0.47284967  1
  O  O60  1  0.49975533  0.14231967  0.42210367  1
  O  O61  1  0.16795833  0.97552967  0.40957667  1
  O  O62  1  0.80757133  0.83204167  0.40957667  1
  O  O63  1  0.46719333  0.30229967  0.52612867  1
  O  O64  1  0.36262400  0.49410200  0.57739900  1
  O  O65  1  0.69770033  0.16489367  0.52612867  1
  O  O66  1  0.30583433  0.83935767  0.47284967  1
  O  O67  1  0.64256433  0.50024467  0.42210367  1
  O  O68  1  0.53352333  0.69416567  0.47284967  1
  O  O69  1  0.19570200  0.16216000  0.59059100  1
  O  O70  1  0.83784000  0.03354200  0.59059100  1
  O  O71  1  0.50589800  0.86852200  0.57739900  1
  O  O72  1  0.83510633  0.53280667  0.52612867  1
  O  O73  1  0.96645800  0.80429800  0.59059100  1
  O  O74  1  0.36252967  0.86851633  0.35863733  1
  O  O75  1  0.13147800  0.63737600  0.57739900  1
  O  O76  1  0.50598667  0.63747033  0.35863733  1
  O  O77  1  0.13148367  0.49401333  0.35863733  1
  O  O78  1  0.52913300  0.83678800  0.97502700  1
  O  O79  1  0.16321200  0.69234500  0.97502700  1
  O  O80  1  0.52434700  0.69076900  0.75543700  1
  O  O81  1  0.30765500  0.47086700  0.97502700  1
  O  O82  1  0.69113700  0.52576200  0.74291000  1
  O  O83  1  0.82730900  0.79981000  0.80618300  1
  O  O84  1  0.16642200  0.47565300  0.75543700  1
  O  O85  1  0.83462500  0.30886300  0.74291000  1
  O  O86  1  0.47423800  0.16537500  0.74291000  1
  O  O87  1  0.13386000  0.63563300  0.85946200  1
  O  O88  1  0.02929067  0.82743533  0.91073233  1
  O  O89  1  0.36436700  0.49822700  0.85946200  1
  O  O90  1  0.97250100  0.17269100  0.80618300  1
  O  O91  1  0.30923100  0.83357800  0.75543700  1
  O  O92  1  0.20019000  0.02749900  0.80618300  1
  O  O93  1  0.86236867  0.49549333  0.92392433  1
  O  O94  1  0.50450667  0.36687533  0.92392433  1
  O  O95  1  0.17256467  0.20185533  0.91073233  1
  O  O96  1  0.50177300  0.86614000  0.85946200  1
  O  O97  1  0.63312467  0.13763133  0.92392433  1
  O  O98  1  0.02919633  0.20184967  0.69197067  1
  O  O99  1  0.79814467  0.97070933  0.91073233  1
  O  O100  1  0.17265333  0.97080367  0.69197067  1
  O  O101  1  0.79815033  0.82734667  0.69197067  1
