# generated using pymatgen
data_LiMnPO4
_symmetry_space_group_name_H-M   'P 1'
_cell_length_a   5.06954000
_cell_length_b   6.42300500
_cell_length_c   9.39589000
_cell_angle_alpha   90.00000000
_cell_angle_beta   90.00000000
_cell_angle_gamma   90.00000000
_symmetry_Int_Tables_number   1
_chemical_formula_structural   LiMnPO4
_chemical_formula_sum   'Li4 Mn4 P4 O16'
_cell_volume   305.94597071
_cell_formula_units_Z   4
loop_
 _symmetry_equiv_pos_site_id
 _symmetry_equiv_pos_as_xyz
  1  'x, y, z'
loop_
 _atom_site_type_symbol
 _atom_site_label
 _atom_site_symmetry_multiplicity
 _atom_site_fract_x
 _atom_site_fract_y
 _atom_site_fract_z
 _atom_site_occupancy
  Li  Li0  1  0.00000000  0.00000000  0.50000000  1
  Li  Li1  1  0.00000000  0.50000000  0.50000000  1
  Li  Li2  1  0.50000000  0.00000000  0.00000000  1
  Li  Li3  1  0.50000000  0.50000000  0.00000000  1
  Mn  Mn4  1  0.02643200  0.75000000  0.14749450  1
  Mn  Mn5  1  0.52643200  0.25000000  0.35250550  1
  Mn  Mn6  1  0.47356800  0.75000000  0.64749450  1
  Mn  Mn7  1  0.97356800  0.25000000  0.85250550  1
  P  P8  1  0.46109100  0.25000000  0.68031650  1
  P  P9  1  0.96109100  0.75000000  0.81968350  1
  P  P10  1  0.03890900  0.25000000  0.18031650  1
  P  P11  1  0.53890900  0.75000000  0.31968350  1
  O  O12  1  0.76257900  0.25000000  0.65074550  1
  O  O13  1  0.26257900  0.75000000  0.84925450  1
  O  O14  1  0.73742100  0.25000000  0.15074550  1
  O  O15  1  0.23742100  0.75000000  0.34925450  1
  O  O16  1  0.89944400  0.75000000  0.65603650  1
  O  O17  1  0.39944400  0.25000000  0.84396350  1
  O  O18  1  0.60055600  0.75000000  0.15603650  1
  O  O19  1  0.10055600  0.25000000  0.34396350  1
  O  O20  1  0.33073800  0.05526300  0.61170150  1
  O  O21  1  0.33073800  0.44473700  0.61170150  1
  O  O22  1  0.83073800  0.94473700  0.88829850  1
  O  O23  1  0.83073800  0.55526300  0.88829850  1
  O  O24  1  0.16926200  0.05526300  0.11170150  1
  O  O25  1  0.16926200  0.44473700  0.11170150  1
  O  O26  1  0.66926200  0.55526300  0.38829850  1
  O  O27  1  0.66926200  0.94473700  0.38829850  1
