# generated using pymatgen
data_V2O3F
_symmetry_space_group_name_H-M   'P 1'
_cell_length_a   8.98556800
_cell_length_b   6.53823200
_cell_length_c   8.96415093
_cell_angle_alpha   90.00000000
_cell_angle_beta   92.76311689
_cell_angle_gamma   90.00000000
_symmetry_Int_Tables_number   1
_chemical_formula_structural   V2O3F
_chemical_formula_sum   'V16 O24 F8'
_cell_volume   526.02914545
_cell_formula_units_Z   8
loop_
 _symmetry_equiv_pos_site_id
 _symmetry_equiv_pos_as_xyz
  1  'x, y, z'
loop_
 _atom_site_type_symbol
 _atom_site_label
 _atom_site_symmetry_multiplicity
 _atom_site_fract_x
 _atom_site_fract_y
 _atom_site_fract_z
 _atom_site_occupancy
  V  V0  1  0.14177900  0.00000000  0.64596000  1
  V  V1  1  0.85822100  0.00000000  0.35404000  1
  V  V2  1  0.50000000  0.00000000  0.50000000  1
  V  V3  1  0.24152800  0.00000000  0.26263300  1
  V  V4  1  0.00000000  0.00000000  0.00000000  1
  V  V5  1  0.60284500  0.00000000  0.13564400  1
  V  V6  1  0.39715500  0.00000000  0.86435600  1
  V  V7  1  0.75847200  0.00000000  0.73736700  1
  V  V8  1  0.64177900  0.50000000  0.64596000  1
  V  V9  1  0.35822100  0.50000000  0.35404000  1
  V  V10  1  0.00000000  0.50000000  0.50000000  1
  V  V11  1  0.74152800  0.50000000  0.26263300  1
  V  V12  1  0.50000000  0.50000000  0.00000000  1
  V  V13  1  0.10284500  0.50000000  0.13564400  1
  V  V14  1  0.89715500  0.50000000  0.86435600  1
  V  V15  1  0.25847200  0.50000000  0.73736700  1
  O  O16  1  0.74433400  0.19376000  0.24122200  1
  O  O17  1  0.52888000  0.00000000  0.71996800  1
  O  O18  1  0.01928100  0.00000000  0.22879200  1
  O  O19  1  0.27221700  0.00000000  0.48544500  1
  O  O20  1  0.72778300  0.00000000  0.51455500  1
  O  O21  1  0.98071900  0.00000000  0.77120800  1
  O  O22  1  0.47112000  0.00000000  0.28003200  1
  O  O23  1  0.74433400  0.80624000  0.24122200  1
  O  O24  1  0.25566600  0.80624000  0.75877800  1
  O  O25  1  0.50000000  0.80662800  0.00000000  1
  O  O26  1  0.25566600  0.19376000  0.75877800  1
  O  O27  1  0.50000000  0.19337200  0.00000000  1
  O  O28  1  0.24433400  0.69376000  0.24122200  1
  O  O29  1  0.02888000  0.50000000  0.71996800  1
  O  O30  1  0.51928100  0.50000000  0.22879200  1
  O  O31  1  0.77221700  0.50000000  0.48544500  1
  O  O32  1  0.22778300  0.50000000  0.51455500  1
  O  O33  1  0.48071900  0.50000000  0.77120800  1
  O  O34  1  0.97112000  0.50000000  0.28003200  1
  O  O35  1  0.24433400  0.30624000  0.24122200  1
  O  O36  1  0.75566600  0.30624000  0.75877800  1
  O  O37  1  0.00000000  0.30662800  0.00000000  1
  O  O38  1  0.75566600  0.69376000  0.75877800  1
  O  O39  1  0.00000000  0.69337200  0.00000000  1
  F  F40  1  0.50000000  0.30950800  0.50000000  1
  F  F41  1  0.50000000  0.69049200  0.50000000  1
  F  F42  1  0.77072200  0.00000000  0.97213600  1
  F  F43  1  0.22927800  0.00000000  0.02786400  1
  F  F44  1  0.00000000  0.80950800  0.50000000  1
  F  F45  1  0.00000000  0.19049200  0.50000000  1
  F  F46  1  0.27072200  0.50000000  0.97213600  1
  F  F47  1  0.72927800  0.50000000  0.02786400  1
