# generated using pymatgen
data_Li6Mn5CoO12
_symmetry_space_group_name_H-M   'P 1'
_cell_length_a   5.06984086
_cell_length_b   5.07112333
_cell_length_c   10.15107515
_cell_angle_alpha   84.61512410
_cell_angle_beta   81.92550895
_cell_angle_gamma   66.44206660
_symmetry_Int_Tables_number   1
_chemical_formula_structural   Li6Mn5CoO12
_chemical_formula_sum   'Li6 Mn5 Co1 O12'
_cell_volume   236.65463787
_cell_formula_units_Z   1
loop_
 _symmetry_equiv_pos_site_id
 _symmetry_equiv_pos_as_xyz
  1  'x, y, z'
loop_
 _atom_site_type_symbol
 _atom_site_label
 _atom_site_symmetry_multiplicity
 _atom_site_fract_x
 _atom_site_fract_y
 _atom_site_fract_z
 _atom_site_occupancy
  Li  Li0  1  0.95575500  0.63648100  0.24134800  1
  Li  Li1  1  0.04424500  0.36351900  0.75865200  1
  Li  Li2  1  0.28342100  0.96429900  0.24150100  1
  Li  Li3  1  0.71657900  0.03570100  0.75849900  1
  Li  Li4  1  0.37542500  0.70519500  0.75970000  1
  Li  Li5  1  0.62457500  0.29480500  0.24030000  1
  Mn  Mn6  1  0.00000000  0.50000000  0.50000000  1
  Mn  Mn7  1  0.66740700  0.66768700  0.00020300  1
  Mn  Mn8  1  0.33259300  0.33231300  0.99979700  1
  Mn  Mn9  1  0.33307100  0.83280900  0.50009300  1
  Mn  Mn10  1  0.66692900  0.16719100  0.49990700  1
  Co  Co11  1  0.00000000  0.00000000  0.00000000  1
  O  O12  1  0.06106800  0.81021200  0.38750000  1
  O  O13  1  0.93893200  0.18978800  0.61250000  1
  O  O14  1  0.68431900  0.95107500  0.11214400  1
  O  O15  1  0.31568100  0.04892500  0.88785600  1
  O  O16  1  0.60448200  0.85838800  0.61306700  1
  O  O17  1  0.39551800  0.14161200  0.38693300  1
  O  O18  1  0.98845400  0.72207100  0.88794900  1
  O  O19  1  0.01154600  0.27792900  0.11205100  1
  O  O20  1  0.72893900  0.47618500  0.38650900  1
  O  O21  1  0.27106100  0.52381500  0.61349100  1
  O  O22  1  0.34453600  0.61718100  0.11344700  1
  O  O23  1  0.65546400  0.38281900  0.88655300  1
