# generated using pymatgen
data_Ti5TlSe8
_symmetry_space_group_name_H-M   'P 1'
_cell_length_a   18.90252800
_cell_length_b   3.57395800
_cell_length_c   9.24489335
_cell_angle_alpha   90.00000000
_cell_angle_beta   104.53596355
_cell_angle_gamma   90.00000000
_symmetry_Int_Tables_number   1
_chemical_formula_structural   Ti5TlSe8
_chemical_formula_sum   'Ti10 Tl2 Se16'
_cell_volume   604.56394222
_cell_formula_units_Z   2
loop_
 _symmetry_equiv_pos_site_id
 _symmetry_equiv_pos_as_xyz
  1  'x, y, z'
loop_
 _atom_site_type_symbol
 _atom_site_label
 _atom_site_symmetry_multiplicity
 _atom_site_fract_x
 _atom_site_fract_y
 _atom_site_fract_z
 _atom_site_occupancy
  Ti  Ti0  1  0.00000000  0.50000000  0.50000000  1
  Ti  Ti1  1  0.15238700  0.00000000  0.49842100  1
  Ti  Ti2  1  0.20907100  0.00000000  0.84889000  1
  Ti  Ti3  1  0.29092900  0.50000000  0.15111000  1
  Ti  Ti4  1  0.34761300  0.50000000  0.50157900  1
  Ti  Ti5  1  0.50000000  0.00000000  0.50000000  1
  Ti  Ti6  1  0.65238700  0.50000000  0.49842100  1
  Ti  Ti7  1  0.70907100  0.50000000  0.84889000  1
  Ti  Ti8  1  0.79092900  0.00000000  0.15111000  1
  Ti  Ti9  1  0.84761300  0.00000000  0.50157900  1
  Tl  Tl10  1  0.00000000  0.00000000  0.00000000  1
  Tl  Tl11  1  0.50000000  0.50000000  0.00000000  1
  Se  Se12  1  0.42671200  0.50000000  0.32205500  1
  Se  Se13  1  0.33935600  0.00000000  0.00134100  1
  Se  Se14  1  0.16064400  0.50000000  0.99865900  1
  Se  Se15  1  0.24231600  0.50000000  0.66173500  1
  Se  Se16  1  0.25768400  0.00000000  0.33826500  1
  Se  Se17  1  0.41430200  0.00000000  0.68085100  1
  Se  Se18  1  0.08569800  0.50000000  0.31914900  1
  Se  Se19  1  0.07328800  0.00000000  0.67794500  1
  Se  Se20  1  0.92671200  0.00000000  0.32205500  1
  Se  Se21  1  0.83935600  0.50000000  0.00134100  1
  Se  Se22  1  0.66064400  0.00000000  0.99865900  1
  Se  Se23  1  0.74231600  0.00000000  0.66173500  1
  Se  Se24  1  0.75768400  0.50000000  0.33826500  1
  Se  Se25  1  0.91430200  0.50000000  0.68085100  1
  Se  Se26  1  0.58569800  0.00000000  0.31914900  1
  Se  Se27  1  0.57328800  0.50000000  0.67794500  1
