# generated using pymatgen
data_K2CoSe2
_symmetry_space_group_name_H-M   'P 1'
_cell_length_a   6.23479600
_cell_length_b   7.03741600
_cell_length_c   13.27519400
_cell_angle_alpha   90.00000000
_cell_angle_beta   90.00000000
_cell_angle_gamma   90.00000000
_symmetry_Int_Tables_number   1
_chemical_formula_structural   K2CoSe2
_chemical_formula_sum   'K8 Co4 Se8'
_cell_volume   582.47373737
_cell_formula_units_Z   4
loop_
 _symmetry_equiv_pos_site_id
 _symmetry_equiv_pos_as_xyz
  1  'x, y, z'
loop_
 _atom_site_type_symbol
 _atom_site_label
 _atom_site_symmetry_multiplicity
 _atom_site_fract_x
 _atom_site_fract_y
 _atom_site_fract_z
 _atom_site_occupancy
  K  K0  1  0.50000000  0.17263150  0.35584350  1
  K  K1  1  0.00000000  0.32736850  0.14415650  1
  K  K2  1  0.50000000  0.67263150  0.14415650  1
  K  K3  1  0.00000000  0.82736850  0.35584350  1
  K  K4  1  0.00000000  0.67263150  0.85584350  1
  K  K5  1  0.50000000  0.82736850  0.64415650  1
  K  K6  1  0.00000000  0.17263150  0.64415650  1
  K  K7  1  0.50000000  0.32736850  0.85584350  1
  Co  Co8  1  0.25000000  0.00000000  0.00000000  1
  Co  Co9  1  0.75000000  0.00000000  0.00000000  1
  Co  Co10  1  0.75000000  0.50000000  0.50000000  1
  Co  Co11  1  0.25000000  0.50000000  0.50000000  1
  Se  Se12  1  0.00000000  0.81570900  0.10150500  1
  Se  Se13  1  0.50000000  0.68429100  0.39849500  1
  Se  Se14  1  0.00000000  0.31570900  0.39849500  1
  Se  Se15  1  0.50000000  0.18429100  0.10150500  1
  Se  Se16  1  0.50000000  0.31570900  0.60150500  1
  Se  Se17  1  0.00000000  0.18429100  0.89849500  1
  Se  Se18  1  0.50000000  0.81570900  0.89849500  1
  Se  Se19  1  0.00000000  0.68429100  0.60150500  1
