# generated using pymatgen
data_Ba2Tb2Mn4O11
_symmetry_space_group_name_H-M   'P 1'
_cell_length_a   7.67398200
_cell_length_b   8.26127400
_cell_length_c   15.56691600
_cell_angle_alpha   90.00000000
_cell_angle_beta   90.00000000
_cell_angle_gamma   90.00000000
_symmetry_Int_Tables_number   1
_chemical_formula_structural   Ba2Tb2Mn4O11
_chemical_formula_sum   'Ba8 Tb8 Mn16 O44'
_cell_volume   986.89371840
_cell_formula_units_Z   4
loop_
 _symmetry_equiv_pos_site_id
 _symmetry_equiv_pos_as_xyz
  1  'x, y, z'
loop_
 _atom_site_type_symbol
 _atom_site_label
 _atom_site_symmetry_multiplicity
 _atom_site_fract_x
 _atom_site_fract_y
 _atom_site_fract_z
 _atom_site_occupancy
  Ba  Ba0  1  0.00000000  0.74821400  0.24892500  1
  Ba  Ba1  1  0.50000000  0.75178600  0.25107500  1
  Ba  Ba2  1  0.50000000  0.25178600  0.24892500  1
  Ba  Ba3  1  0.00000000  0.24821400  0.25107500  1
  Ba  Ba4  1  0.50000000  0.24821400  0.74892500  1
  Ba  Ba5  1  0.00000000  0.25178600  0.75107500  1
  Ba  Ba6  1  0.00000000  0.75178600  0.74892500  1
  Ba  Ba7  1  0.50000000  0.74821400  0.75107500  1
  Tb  Tb8  1  0.00000000  0.77619800  0.49645100  1
  Tb  Tb9  1  0.50000000  0.72380200  0.00354900  1
  Tb  Tb10  1  0.50000000  0.22380200  0.49645100  1
  Tb  Tb11  1  0.00000000  0.27619800  0.00354900  1
  Tb  Tb12  1  0.50000000  0.27619800  0.99645100  1
  Tb  Tb13  1  0.00000000  0.22380200  0.50354900  1
  Tb  Tb14  1  0.00000000  0.72380200  0.99645100  1
  Tb  Tb15  1  0.50000000  0.77619800  0.50354900  1
  Mn  Mn16  1  0.25000000  0.50000000  0.38575800  1
  Mn  Mn17  1  0.75000000  0.00000000  0.11424200  1
  Mn  Mn18  1  0.25000000  0.00000000  0.11424200  1
  Mn  Mn19  1  0.75000000  0.50000000  0.38575800  1
  Mn  Mn20  1  0.25000000  0.50000000  0.12434800  1
  Mn  Mn21  1  0.75000000  0.00000000  0.37565200  1
  Mn  Mn22  1  0.25000000  0.00000000  0.37565200  1
  Mn  Mn23  1  0.75000000  0.50000000  0.12434800  1
  Mn  Mn24  1  0.75000000  0.00000000  0.88575800  1
  Mn  Mn25  1  0.25000000  0.50000000  0.61424200  1
  Mn  Mn26  1  0.75000000  0.50000000  0.61424200  1
  Mn  Mn27  1  0.25000000  0.00000000  0.88575800  1
  Mn  Mn28  1  0.75000000  0.00000000  0.62434800  1
  Mn  Mn29  1  0.25000000  0.50000000  0.87565200  1
  Mn  Mn30  1  0.75000000  0.50000000  0.87565200  1
  Mn  Mn31  1  0.25000000  0.00000000  0.62434800  1
  O  O32  1  0.28393550  0.73197050  0.40047450  1
  O  O33  1  0.78393550  0.76802950  0.09952550  1
  O  O34  1  0.21606450  0.26802950  0.40047450  1
  O  O35  1  0.71606450  0.23197050  0.09952550  1
  O  O36  1  0.21606450  0.76802950  0.09952550  1
  O  O37  1  0.71606450  0.73197050  0.40047450  1
  O  O38  1  0.28393550  0.23197050  0.09952550  1
  O  O39  1  0.78393550  0.26802950  0.40047450  1
  O  O40  1  0.25000000  0.50000000  0.24864600  1
  O  O41  1  0.75000000  0.00000000  0.25135400  1
  O  O42  1  0.25000000  0.00000000  0.25135400  1
  O  O43  1  0.75000000  0.50000000  0.24864600  1
  O  O44  1  0.00000000  0.54415700  0.40878300  1
  O  O45  1  0.50000000  0.95584300  0.09121700  1
  O  O46  1  0.50000000  0.45584300  0.40878300  1
  O  O47  1  0.00000000  0.04415700  0.09121700  1
  O  O48  1  0.00000000  0.47045000  0.11450300  1
  O  O49  1  0.50000000  0.02955000  0.38549700  1
  O  O50  1  0.50000000  0.52955000  0.11450300  1
  O  O51  1  0.00000000  0.97045000  0.38549700  1
  O  O52  1  0.25000000  0.50000000  0.00000000  1
  O  O53  1  0.75000000  0.50000000  0.00000000  1
  O  O54  1  0.78393550  0.23197050  0.90047450  1
  O  O55  1  0.28393550  0.26802950  0.59952550  1
  O  O56  1  0.71606450  0.76802950  0.90047450  1
  O  O57  1  0.21606450  0.73197050  0.59952550  1
  O  O58  1  0.71606450  0.26802950  0.59952550  1
  O  O59  1  0.21606450  0.23197050  0.90047450  1
  O  O60  1  0.78393550  0.73197050  0.59952550  1
  O  O61  1  0.28393550  0.76802950  0.90047450  1
  O  O62  1  0.75000000  0.00000000  0.74864600  1
  O  O63  1  0.25000000  0.50000000  0.75135400  1
  O  O64  1  0.75000000  0.50000000  0.75135400  1
  O  O65  1  0.25000000  0.00000000  0.74864600  1
  O  O66  1  0.50000000  0.04415700  0.90878300  1
  O  O67  1  0.00000000  0.45584300  0.59121700  1
  O  O68  1  0.00000000  0.95584300  0.90878300  1
  O  O69  1  0.50000000  0.54415700  0.59121700  1
  O  O70  1  0.50000000  0.97045000  0.61450300  1
  O  O71  1  0.00000000  0.52955000  0.88549700  1
  O  O72  1  0.00000000  0.02955000  0.61450300  1
  O  O73  1  0.50000000  0.47045000  0.88549700  1
  O  O74  1  0.75000000  0.00000000  0.50000000  1
  O  O75  1  0.25000000  0.00000000  0.50000000  1
