# generated using pymatgen
data_LiMnPO4
_symmetry_space_group_name_H-M   'P 1'
_cell_length_a   8.24063361
_cell_length_b   5.33373500
_cell_length_c   8.60571506
_cell_angle_alpha   90.00000000
_cell_angle_beta   105.99816156
_cell_angle_gamma   90.00000000
_symmetry_Int_Tables_number   1
_chemical_formula_structural   LiMnPO4
_chemical_formula_sum   'Li4 Mn4 P4 O16'
_cell_volume   363.60063669
_cell_formula_units_Z   4
loop_
 _symmetry_equiv_pos_site_id
 _symmetry_equiv_pos_as_xyz
  1  'x, y, z'
loop_
 _atom_site_type_symbol
 _atom_site_label
 _atom_site_symmetry_multiplicity
 _atom_site_fract_x
 _atom_site_fract_y
 _atom_site_fract_z
 _atom_site_occupancy
  Li  Li0  1  0.13043900  0.83890550  0.78750600  1
  Li  Li1  1  0.13043900  0.16109450  0.28750600  1
  Li  Li2  1  0.63790700  0.32417350  0.61856100  1
  Li  Li3  1  0.63790700  0.67582650  0.11856100  1
  Mn  Mn4  1  0.51055700  0.82357550  0.73235400  1
  Mn  Mn5  1  0.51055700  0.17642450  0.23235400  1
  Mn  Mn6  1  0.03809500  0.33954850  0.92979300  1
  Mn  Mn7  1  0.03809500  0.66045150  0.42979300  1
  P  P8  1  0.74892400  0.17536050  0.99425000  1
  P  P9  1  0.74892400  0.82463950  0.49425000  1
  P  P10  1  0.25974400  0.31968550  0.66362700  1
  P  P11  1  0.25974400  0.68031450  0.16362700  1
  O  O12  1  0.12697100  0.70049150  0.99549000  1
  O  O13  1  0.12697100  0.29950850  0.49549000  1
  O  O14  1  0.68063000  0.90287950  0.95689100  1
  O  O15  1  0.68063000  0.09712050  0.45689100  1
  O  O16  1  0.19044000  0.19670350  0.79619400  1
  O  O17  1  0.19044000  0.80329650  0.29619400  1
  O  O18  1  0.28908600  0.60844650  0.69929700  1
  O  O19  1  0.28908600  0.39155350  0.19929700  1
  O  O20  1  0.77211200  0.30051650  0.83765500  1
  O  O21  1  0.77211200  0.69948350  0.33765500  1
  O  O22  1  0.42443900  0.18716450  0.65796800  1
  O  O23  1  0.42443900  0.81283550  0.15796800  1
  O  O24  1  0.62219300  0.67648050  0.56398000  1
  O  O25  1  0.62219300  0.32351950  0.06398000  1
  O  O26  1  0.92964800  0.81500550  0.61260000  1
  O  O27  1  0.92964800  0.18499450  0.11260000  1
