# generated using pymatgen
data_Li3Cr2(PO4)3
_symmetry_space_group_name_H-M   'P 1'
_cell_length_a   8.36751804
_cell_length_b   8.37831644
_cell_length_c   8.98036301
_cell_angle_alpha   117.67066828
_cell_angle_beta   89.98888632
_cell_angle_gamma   119.89519756
_symmetry_Int_Tables_number   1
_chemical_formula_structural   Li3Cr2(PO4)3
_chemical_formula_sum   'Li6 Cr4 P6 O24'
_cell_volume   460.93097535
_cell_formula_units_Z   2
loop_
 _symmetry_equiv_pos_site_id
 _symmetry_equiv_pos_as_xyz
  1  'x, y, z'
loop_
 _atom_site_type_symbol
 _atom_site_label
 _atom_site_symmetry_multiplicity
 _atom_site_fract_x
 _atom_site_fract_y
 _atom_site_fract_z
 _atom_site_occupancy
  Li  Li0  1  0.08213817  0.26773908  0.15163103  1
  Li  Li1  1  0.32849000  0.92019755  0.14346427  1
  Li  Li2  1  0.74560965  0.55810425  0.37342753  1
  Li  Li3  1  0.26918467  0.32698574  0.86217389  1
  Li  Li4  1  0.67187003  0.06989622  0.86492903  1
  Li  Li5  1  0.92120992  0.73382273  0.86558453  1
  Cr  Cr6  1  0.35225049  0.65510378  0.04482419  1
  Cr  Cr7  1  0.14673490  0.85241107  0.43609099  1
  Cr  Cr8  1  0.85645131  0.14365004  0.56795944  1
  Cr  Cr9  1  0.65448129  0.34772505  0.95871452  1
  P  P10  1  0.03822365  0.54044531  0.24823631  1
  P  P11  1  0.46053478  0.25114154  0.25298574  1
  P  P12  1  0.74951975  0.95786907  0.25260840  1
  P  P13  1  0.25264254  0.03983069  0.75024752  1
  P  P14  1  0.53666586  0.74829745  0.74904698  1
  P  P15  1  0.96133195  0.45522774  0.75636101  1
  O  O16  1  0.17347792  0.50792052  0.19914793  1
  O  O17  1  0.13251846  0.74792923  0.26313385  1
  O  O18  1  0.46360513  0.20923535  0.10022192  1
  O  O19  1  0.25405741  0.11996529  0.26947260  1
  O  O20  1  0.99970680  0.39062229  0.41975710  1
  O  O21  1  0.49120293  0.46675029  0.20132160  1
  O  O22  1  0.53203612  0.83125184  0.19702976  1
  O  O23  1  0.79387583  0.15164341  0.09454740  1
  O  O24  1  0.84576694  0.53601291  0.09147173  1
  O  O25  1  0.19758266  0.00019536  0.58192505  1
  O  O26  1  0.12476327  0.13673485  0.73303504  1
  O  O27  1  0.62024813  0.21346939  0.42454674  1
  O  O28  1  0.38652157  0.79748003  0.57267702  1
  O  O29  1  0.87244400  0.85036251  0.28133683  1
  O  O30  1  0.79989707  0.00162686  0.41753296  1
  O  O31  1  0.15945247  0.46124642  0.90699051  1
  O  O32  1  0.21034021  0.84418373  0.90776753  1
  O  O33  1  0.46902066  0.16849310  0.80646685  1
  O  O34  1  0.50703318  0.53090090  0.80956063  1
  O  O35  1  0.98723096  0.60414839  0.57890805  1
  O  O36  1  0.74470799  0.87617038  0.73343474  1
  O  O37  1  0.52405753  0.79554805  0.89207445  1
  O  O38  1  0.86729643  0.24832823  0.74146491  1
  O  O39  1  0.83244337  0.49220434  0.80725341  1
