# generated using pymatgen
data_Li5CoOF5
_symmetry_space_group_name_H-M   'P 1'
_cell_length_a   3.19833845
_cell_length_b   3.19833845
_cell_length_c   14.98298916
_cell_angle_alpha   90.00000000
_cell_angle_beta   90.00000000
_cell_angle_gamma   120.00000000
_symmetry_Int_Tables_number   1
_chemical_formula_structural   Li5CoOF5
_chemical_formula_sum   'Li5 Co1 O1 F5'
_cell_volume   132.73270214
_cell_formula_units_Z   1
loop_
 _symmetry_equiv_pos_site_id
 _symmetry_equiv_pos_as_xyz
  1  'x, y, z'
loop_
 _atom_site_type_symbol
 _atom_site_label
 _atom_site_symmetry_multiplicity
 _atom_site_fract_x
 _atom_site_fract_y
 _atom_site_fract_z
 _atom_site_occupancy
  Li  Li0  1  0.33333333  0.66666667  0.00616350  1
  Li  Li1  1  0.33333333  0.66666667  0.66141025  1
  Li  Li2  1  0.33333333  0.66666667  0.33391900  1
  Li  Li3  1  0.66666667  0.33333333  0.49772300  1
  Li  Li4  1  0.66666667  0.33333333  0.17032600  1
  Co  Co5  1  0.66666667  0.33333333  0.83951000  1
  O  O6  1  0.33333333  0.66666667  0.87378825  1
  F  F7  1  0.33333333  0.66666667  0.53508000  1
  F  F8  1  0.33333333  0.66666667  0.20763300  1
  F  F9  1  0.66666667  0.33333333  0.69595025  1
  F  F10  1  0.66666667  0.33333333  0.04411350  1
  F  F11  1  0.66666667  0.33333333  0.37135050  1
