# generated using pymatgen
data_Li3CrNi3O8
_symmetry_space_group_name_H-M   'P 1'
_cell_length_a   10.14966800
_cell_length_b   5.76344200
_cell_length_c   5.84957653
_cell_angle_alpha   90.00000000
_cell_angle_beta   124.47954070
_cell_angle_gamma   90.00000000
_symmetry_Int_Tables_number   1
_chemical_formula_structural   Li3CrNi3O8
_chemical_formula_sum   'Li6 Cr2 Ni6 O16'
_cell_volume   282.07100620
_cell_formula_units_Z   2
loop_
 _symmetry_equiv_pos_site_id
 _symmetry_equiv_pos_as_xyz
  1  'x, y, z'
loop_
 _atom_site_type_symbol
 _atom_site_label
 _atom_site_symmetry_multiplicity
 _atom_site_fract_x
 _atom_site_fract_y
 _atom_site_fract_z
 _atom_site_occupancy
  Li  Li0  1  0.25000000  0.75000000  0.50000000  1
  Li  Li1  1  0.25000000  0.25000000  0.50000000  1
  Li  Li2  1  0.00000000  0.50000000  0.50000000  1
  Li  Li3  1  0.75000000  0.25000000  0.50000000  1
  Li  Li4  1  0.75000000  0.75000000  0.50000000  1
  Li  Li5  1  0.50000000  0.00000000  0.50000000  1
  Cr  Cr6  1  0.00000000  0.00000000  0.00000000  1
  Cr  Cr7  1  0.50000000  0.50000000  0.00000000  1
  Ni  Ni8  1  0.00000000  0.50000000  0.00000000  1
  Ni  Ni9  1  0.25000000  0.25000000  0.00000000  1
  Ni  Ni10  1  0.25000000  0.75000000  0.00000000  1
  Ni  Ni11  1  0.50000000  0.00000000  0.00000000  1
  Ni  Ni12  1  0.75000000  0.75000000  0.00000000  1
  Ni  Ni13  1  0.75000000  0.25000000  0.00000000  1
  O  O14  1  0.22499900  0.50000000  0.19930300  1
  O  O15  1  0.00025350  0.73936250  0.22157800  1
  O  O16  1  0.23155900  0.00000000  0.22188300  1
  O  O17  1  0.00025350  0.26063750  0.22157800  1
  O  O18  1  0.49974650  0.23936250  0.77842200  1
  O  O19  1  0.26844100  0.50000000  0.77811700  1
  O  O20  1  0.49974650  0.76063750  0.77842200  1
  O  O21  1  0.27500100  0.00000000  0.80069700  1
  O  O22  1  0.72499900  0.00000000  0.19930300  1
  O  O23  1  0.50025350  0.23936250  0.22157800  1
  O  O24  1  0.73155900  0.50000000  0.22188300  1
  O  O25  1  0.50025350  0.76063750  0.22157800  1
  O  O26  1  0.99974650  0.73936250  0.77842200  1
  O  O27  1  0.76844100  0.00000000  0.77811700  1
  O  O28  1  0.99974650  0.26063750  0.77842200  1
  O  O29  1  0.77500100  0.50000000  0.80069700  1
