# generated using pymatgen
data_NaV10O15
_symmetry_space_group_name_H-M   'P 1'
_cell_length_a   10.36706000
_cell_length_b   11.82353600
_cell_length_c   9.72592200
_cell_angle_alpha   90.00000000
_cell_angle_beta   90.00000000
_cell_angle_gamma   90.00000000
_symmetry_Int_Tables_number   1
_chemical_formula_structural   NaV10O15
_chemical_formula_sum   'Na4 V40 O60'
_cell_volume   1192.15787622
_cell_formula_units_Z   4
loop_
 _symmetry_equiv_pos_site_id
 _symmetry_equiv_pos_as_xyz
  1  'x, y, z'
loop_
 _atom_site_type_symbol
 _atom_site_label
 _atom_site_symmetry_multiplicity
 _atom_site_fract_x
 _atom_site_fract_y
 _atom_site_fract_z
 _atom_site_occupancy
  Na  Na0  1  0.00000000  0.00000000  0.00000000  1
  Na  Na1  1  0.50000000  0.00000000  0.50000000  1
  Na  Na2  1  0.50000000  0.50000000  0.00000000  1
  Na  Na3  1  0.00000000  0.50000000  0.50000000  1
  V  V4  1  0.18414400  0.00000000  0.63246500  1
  V  V5  1  0.31585600  0.00000000  0.13246500  1
  V  V6  1  0.33887300  0.74025800  0.11548400  1
  V  V7  1  0.33887300  0.75974200  0.38451600  1
  V  V8  1  0.33887300  0.24025800  0.38451600  1
  V  V9  1  0.33887300  0.25974200  0.11548400  1
  V  V10  1  0.41503350  0.87391250  0.85493900  1
  V  V11  1  0.41503350  0.62608750  0.64506100  1
  V  V12  1  0.41503350  0.37391250  0.64506100  1
  V  V13  1  0.41503350  0.12608750  0.85493900  1
  V  V14  1  0.58496650  0.12608750  0.14506100  1
  V  V15  1  0.58496650  0.62608750  0.35493900  1
  V  V16  1  0.58496650  0.37391250  0.35493900  1
  V  V17  1  0.58496650  0.87391250  0.14506100  1
  V  V18  1  0.66112700  0.74025800  0.88451600  1
  V  V19  1  0.66112700  0.25974200  0.88451600  1
  V  V20  1  0.66112700  0.24025800  0.61548400  1
  V  V21  1  0.66112700  0.75974200  0.61548400  1
  V  V22  1  0.68414400  0.00000000  0.86753500  1
  V  V23  1  0.81585600  0.00000000  0.36753500  1
  V  V24  1  0.68414400  0.50000000  0.63246500  1
  V  V25  1  0.81585600  0.50000000  0.13246500  1
  V  V26  1  0.83887300  0.24025800  0.11548400  1
  V  V27  1  0.83887300  0.25974200  0.38451600  1
  V  V28  1  0.83887300  0.74025800  0.38451600  1
  V  V29  1  0.83887300  0.75974200  0.11548400  1
  V  V30  1  0.91503350  0.37391250  0.85493900  1
  V  V31  1  0.91503350  0.12608750  0.64506100  1
  V  V32  1  0.91503350  0.87391250  0.64506100  1
  V  V33  1  0.91503350  0.62608750  0.85493900  1
  V  V34  1  0.08496650  0.62608750  0.14506100  1
  V  V35  1  0.08496650  0.12608750  0.35493900  1
  V  V36  1  0.08496650  0.87391250  0.35493900  1
  V  V37  1  0.08496650  0.37391250  0.14506100  1
  V  V38  1  0.16112700  0.24025800  0.88451600  1
  V  V39  1  0.16112700  0.75974200  0.88451600  1
  V  V40  1  0.16112700  0.74025800  0.61548400  1
  V  V41  1  0.16112700  0.25974200  0.61548400  1
  V  V42  1  0.18414400  0.50000000  0.86753500  1
  V  V43  1  0.31585600  0.50000000  0.36753500  1
  O  O44  1  0.15483000  0.00000000  0.24431900  1
  O  O45  1  0.26598400  0.87244100  0.99521500  1
  O  O46  1  0.26598400  0.12755900  0.99521500  1
  O  O47  1  0.23401600  0.87244100  0.49521500  1
  O  O48  1  0.23401600  0.12755900  0.49521500  1
  O  O49  1  0.31866500  0.25000000  0.75000000  1
  O  O50  1  0.31866500  0.75000000  0.75000000  1
  O  O51  1  0.34517000  0.00000000  0.74431900  1
  O  O52  1  0.41018450  0.62804750  0.26367400  1
  O  O53  1  0.41018450  0.87195250  0.23632600  1
  O  O54  1  0.41018450  0.12804750  0.23632600  1
  O  O55  1  0.41018450  0.37195250  0.26367400  1
  O  O56  1  0.50000000  0.75977200  0.00000000  1
  O  O57  1  0.50000000  0.24022800  0.00000000  1
  O  O58  1  0.00000000  0.00000000  0.50000000  1
  O  O59  1  0.50000000  0.00000000  0.00000000  1
  O  O60  1  0.50000000  0.25977200  0.50000000  1
  O  O61  1  0.50000000  0.74022800  0.50000000  1
  O  O62  1  0.58981550  0.37195250  0.73632600  1
  O  O63  1  0.58981550  0.12804750  0.76367400  1
  O  O64  1  0.58981550  0.87195250  0.76367400  1
  O  O65  1  0.58981550  0.62804750  0.73632600  1
  O  O66  1  0.65483000  0.00000000  0.25568100  1
  O  O67  1  0.68133500  0.75000000  0.25000000  1
  O  O68  1  0.68133500  0.25000000  0.25000000  1
  O  O69  1  0.76598400  0.12755900  0.50478500  1
  O  O70  1  0.76598400  0.87244100  0.50478500  1
  O  O71  1  0.73401600  0.12755900  0.00478500  1
  O  O72  1  0.73401600  0.87244100  0.00478500  1
  O  O73  1  0.84517000  0.00000000  0.75568100  1
  O  O74  1  0.65483000  0.50000000  0.24431900  1
  O  O75  1  0.76598400  0.37244100  0.99521500  1
  O  O76  1  0.76598400  0.62755900  0.99521500  1
  O  O77  1  0.73401600  0.37244100  0.49521500  1
  O  O78  1  0.73401600  0.62755900  0.49521500  1
  O  O79  1  0.81866500  0.75000000  0.75000000  1
  O  O80  1  0.81866500  0.25000000  0.75000000  1
  O  O81  1  0.84517000  0.50000000  0.74431900  1
  O  O82  1  0.91018450  0.12804750  0.26367400  1
  O  O83  1  0.91018450  0.37195250  0.23632600  1
  O  O84  1  0.91018450  0.62804750  0.23632600  1
  O  O85  1  0.91018450  0.87195250  0.26367400  1
  O  O86  1  0.00000000  0.25977200  0.00000000  1
  O  O87  1  0.00000000  0.74022800  0.00000000  1
  O  O88  1  0.50000000  0.50000000  0.50000000  1
  O  O89  1  0.00000000  0.50000000  0.00000000  1
  O  O90  1  0.00000000  0.75977200  0.50000000  1
  O  O91  1  0.00000000  0.24022800  0.50000000  1
  O  O92  1  0.08981550  0.87195250  0.73632600  1
  O  O93  1  0.08981550  0.62804750  0.76367400  1
  O  O94  1  0.08981550  0.37195250  0.76367400  1
  O  O95  1  0.08981550  0.12804750  0.73632600  1
  O  O96  1  0.15483000  0.50000000  0.25568100  1
  O  O97  1  0.18133500  0.25000000  0.25000000  1
  O  O98  1  0.18133500  0.75000000  0.25000000  1
  O  O99  1  0.26598400  0.62755900  0.50478500  1
  O  O100  1  0.26598400  0.37244100  0.50478500  1
  O  O101  1  0.23401600  0.62755900  0.00478500  1
  O  O102  1  0.23401600  0.37244100  0.00478500  1
  O  O103  1  0.34517000  0.50000000  0.75568100  1
