# generated using pymatgen
data_Li5Co2O2F5
_symmetry_space_group_name_H-M   'P 1'
_cell_length_a   2.94834600
_cell_length_b   2.94834600
_cell_length_c   28.95937800
_cell_angle_alpha   90.00000000
_cell_angle_beta   90.00000000
_cell_angle_gamma   90.00000000
_symmetry_Int_Tables_number   1
_chemical_formula_structural   Li5Co2O2F5
_chemical_formula_sum   'Li10 Co4 O4 F10'
_cell_volume   251.73646328
_cell_formula_units_Z   2
loop_
 _symmetry_equiv_pos_site_id
 _symmetry_equiv_pos_as_xyz
  1  'x, y, z'
loop_
 _atom_site_type_symbol
 _atom_site_label
 _atom_site_symmetry_multiplicity
 _atom_site_fract_x
 _atom_site_fract_y
 _atom_site_fract_z
 _atom_site_occupancy
  Li  Li0  1  0.50000000  0.50000000  0.13879000  1
  Li  Li1  1  0.00000000  0.00000000  0.36121000  1
  Li  Li2  1  0.50000000  0.50000000  0.43122500  1
  Li  Li3  1  0.50000000  0.50000000  0.00000000  1
  Li  Li4  1  0.00000000  0.00000000  0.06877500  1
  Li  Li5  1  0.00000000  0.00000000  0.63879000  1
  Li  Li6  1  0.50000000  0.50000000  0.86121000  1
  Li  Li7  1  0.00000000  0.00000000  0.93122500  1
  Li  Li8  1  0.00000000  0.00000000  0.50000000  1
  Li  Li9  1  0.50000000  0.50000000  0.56877500  1
  Co  Co10  1  0.00000000  0.00000000  0.21868500  1
  Co  Co11  1  0.50000000  0.50000000  0.28131500  1
  Co  Co12  1  0.50000000  0.50000000  0.71868500  1
  Co  Co13  1  0.00000000  0.00000000  0.78131500  1
  O  O14  1  0.50000000  0.50000000  0.21025100  1
  O  O15  1  0.00000000  0.00000000  0.28974900  1
  O  O16  1  0.00000000  0.00000000  0.71025100  1
  O  O17  1  0.50000000  0.50000000  0.78974900  1
  F  F18  1  0.00000000  0.00000000  0.13842200  1
  F  F19  1  0.50000000  0.50000000  0.36157800  1
  F  F20  1  0.00000000  0.00000000  0.43106600  1
  F  F21  1  0.00000000  0.00000000  0.00000000  1
  F  F22  1  0.50000000  0.50000000  0.06893400  1
  F  F23  1  0.50000000  0.50000000  0.63842200  1
  F  F24  1  0.00000000  0.00000000  0.86157800  1
  F  F25  1  0.50000000  0.50000000  0.93106600  1
  F  F26  1  0.50000000  0.50000000  0.50000000  1
  F  F27  1  0.00000000  0.00000000  0.56893400  1
