# generated using pymatgen
data_LiFe(SiO3)2
_symmetry_space_group_name_H-M   'P 1'
_cell_length_a   10.67137800
_cell_length_b   11.29495000
_cell_length_c   9.97611700
_cell_angle_alpha   90.00000000
_cell_angle_beta   90.00000000
_cell_angle_gamma   90.00000000
_symmetry_Int_Tables_number   1
_chemical_formula_structural   LiFe(SiO3)2
_chemical_formula_sum   'Li8 Fe8 Si16 O48'
_cell_volume   1202.44812739
_cell_formula_units_Z   8
loop_
 _symmetry_equiv_pos_site_id
 _symmetry_equiv_pos_as_xyz
  1  'x, y, z'
loop_
 _atom_site_type_symbol
 _atom_site_label
 _atom_site_symmetry_multiplicity
 _atom_site_fract_x
 _atom_site_fract_y
 _atom_site_fract_z
 _atom_site_occupancy
  Li  Li0  1  0.50000000  0.60028500  0.25000000  1
  Li  Li1  1  0.39901900  0.00000000  0.00000000  1
  Li  Li2  1  0.60098100  0.00000000  0.50000000  1
  Li  Li3  1  0.50000000  0.39971500  0.75000000  1
  Li  Li4  1  0.00000000  0.10028500  0.25000000  1
  Li  Li5  1  0.89901900  0.50000000  0.00000000  1
  Li  Li6  1  0.10098100  0.50000000  0.50000000  1
  Li  Li7  1  0.00000000  0.89971500  0.75000000  1
  Fe  Fe8  1  0.40778500  0.74575100  0.54442100  1
  Fe  Fe9  1  0.59221500  0.74575100  0.95557900  1
  Fe  Fe10  1  0.40778500  0.25424900  0.45557900  1
  Fe  Fe11  1  0.59221500  0.25424900  0.04442100  1
  Fe  Fe12  1  0.90778500  0.24575100  0.54442100  1
  Fe  Fe13  1  0.09221500  0.24575100  0.95557900  1
  Fe  Fe14  1  0.90778500  0.75424900  0.45557900  1
  Fe  Fe15  1  0.09221500  0.75424900  0.04442100  1
  Si  Si16  1  0.07116000  0.00000000  0.50000000  1
  Si  Si17  1  0.25576400  0.88837500  0.29711400  1
  Si  Si18  1  0.25576400  0.11162500  0.70288600  1
  Si  Si19  1  0.50000000  0.95305800  0.75000000  1
  Si  Si20  1  0.50000000  0.04694200  0.25000000  1
  Si  Si21  1  0.74423600  0.88837500  0.20288600  1
  Si  Si22  1  0.74423600  0.11162500  0.79711400  1
  Si  Si23  1  0.92884000  0.00000000  0.00000000  1
  Si  Si24  1  0.57116000  0.50000000  0.50000000  1
  Si  Si25  1  0.75576400  0.38837500  0.29711400  1
  Si  Si26  1  0.75576400  0.61162500  0.70288600  1
  Si  Si27  1  0.00000000  0.45305800  0.75000000  1
  Si  Si28  1  0.00000000  0.54694200  0.25000000  1
  Si  Si29  1  0.24423600  0.38837500  0.20288600  1
  Si  Si30  1  0.24423600  0.61162500  0.79711400  1
  Si  Si31  1  0.42884000  0.50000000  0.00000000  1
  O  O32  1  0.81298150  0.18315550  0.67951800  1
  O  O33  1  0.48969800  0.61649400  0.45611900  1
  O  O34  1  0.30269800  0.80197300  0.41402700  1
  O  O35  1  0.15332350  0.98428150  0.36028900  1
  O  O36  1  0.15332350  0.01571850  0.63971100  1
  O  O37  1  0.51030200  0.61649400  0.04388100  1
  O  O38  1  0.37424800  0.96234100  0.22802500  1
  O  O39  1  0.50044150  0.88036150  0.60853800  1
  O  O40  1  0.49955850  0.88036150  0.89146200  1
  O  O41  1  0.18701850  0.18315550  0.82048200  1
  O  O42  1  0.37424800  0.03765900  0.77197500  1
  O  O43  1  0.30269800  0.19802700  0.58597300  1
  O  O44  1  0.69730200  0.80197300  0.08597300  1
  O  O45  1  0.62575200  0.96234100  0.27197500  1
  O  O46  1  0.81298150  0.81684450  0.32048200  1
  O  O47  1  0.50044150  0.11963850  0.39146200  1
  O  O48  1  0.49955850  0.11963850  0.10853800  1
  O  O49  1  0.62575200  0.03765900  0.72802500  1
  O  O50  1  0.48969800  0.38350600  0.54388100  1
  O  O51  1  0.84667650  0.98428150  0.13971100  1
  O  O52  1  0.84667650  0.01571850  0.86028900  1
  O  O53  1  0.69730200  0.19802700  0.91402700  1
  O  O54  1  0.51030200  0.38350600  0.95611900  1
  O  O55  1  0.18701850  0.81684450  0.17951800  1
  O  O56  1  0.31298150  0.68315550  0.67951800  1
  O  O57  1  0.98969800  0.11649400  0.45611900  1
  O  O58  1  0.80269800  0.30197300  0.41402700  1
  O  O59  1  0.65332350  0.48428150  0.36028900  1
  O  O60  1  0.65332350  0.51571850  0.63971100  1
  O  O61  1  0.01030200  0.11649400  0.04388100  1
  O  O62  1  0.87424800  0.46234100  0.22802500  1
  O  O63  1  0.00044150  0.38036150  0.60853800  1
  O  O64  1  0.99955850  0.38036150  0.89146200  1
  O  O65  1  0.68701850  0.68315550  0.82048200  1
  O  O66  1  0.87424800  0.53765900  0.77197500  1
  O  O67  1  0.80269800  0.69802700  0.58597300  1
  O  O68  1  0.19730200  0.30197300  0.08597300  1
  O  O69  1  0.12575200  0.46234100  0.27197500  1
  O  O70  1  0.31298150  0.31684450  0.32048200  1
  O  O71  1  0.00044150  0.61963850  0.39146200  1
  O  O72  1  0.99955850  0.61963850  0.10853800  1
  O  O73  1  0.12575200  0.53765900  0.72802500  1
  O  O74  1  0.98969800  0.88350600  0.54388100  1
  O  O75  1  0.34667650  0.48428150  0.13971100  1
  O  O76  1  0.34667650  0.51571850  0.86028900  1
  O  O77  1  0.19730200  0.69802700  0.91402700  1
  O  O78  1  0.01030200  0.88350600  0.95611900  1
  O  O79  1  0.68701850  0.31684450  0.17951800  1
