# generated using pymatgen
data_Li4Fe3Sn3(SbO8)2
_symmetry_space_group_name_H-M   'P 1'
_cell_length_a   10.78793178
_cell_length_b   6.19489895
_cell_length_c   9.94325051
_cell_angle_alpha   90.00000000
_cell_angle_beta   90.99579790
_cell_angle_gamma   90.00000000
_symmetry_Int_Tables_number   1
_chemical_formula_structural   Li4Fe3Sn3(SbO8)2
_chemical_formula_sum   'Li8 Fe6 Sn6 Sb4 O32'
_cell_volume   664.40853717
_cell_formula_units_Z   2
loop_
 _symmetry_equiv_pos_site_id
 _symmetry_equiv_pos_as_xyz
  1  'x, y, z'
loop_
 _atom_site_type_symbol
 _atom_site_label
 _atom_site_symmetry_multiplicity
 _atom_site_fract_x
 _atom_site_fract_y
 _atom_site_fract_z
 _atom_site_occupancy
  Li  Li0  1  0.66354425  0.00000000  0.90000650  1
  Li  Li1  1  0.98629675  0.00000000  0.97983150  1
  Li  Li2  1  0.99123675  0.00000000  0.49624100  1
  Li  Li3  1  0.82697600  0.50000000  0.41139550  1
  Li  Li4  1  0.16354425  0.50000000  0.90000650  1
  Li  Li5  1  0.48629675  0.50000000  0.97983150  1
  Li  Li6  1  0.49123675  0.50000000  0.49624100  1
  Li  Li7  1  0.32697600  0.00000000  0.41139550  1
  Fe  Fe8  1  0.82848100  0.00000000  0.21342050  1
  Fe  Fe9  1  0.91753400  0.25876600  0.71121650  1
  Fe  Fe10  1  0.91753400  0.74123400  0.71121650  1
  Fe  Fe11  1  0.32848100  0.50000000  0.21342050  1
  Fe  Fe12  1  0.41753400  0.75876600  0.71121650  1
  Fe  Fe13  1  0.41753400  0.24123400  0.71121650  1
  Sn  Sn14  1  0.67201150  0.50000000  0.71339050  1
  Sn  Sn15  1  0.58512875  0.75366925  0.21349500  1
  Sn  Sn16  1  0.58512875  0.24633075  0.21349500  1
  Sn  Sn17  1  0.17201150  0.00000000  0.71339050  1
  Sn  Sn18  1  0.08512875  0.25366925  0.21349500  1
  Sn  Sn19  1  0.08512875  0.74633075  0.21349500  1
  Sb  Sb20  1  0.67290400  0.00000000  0.49133050  1
  Sb  Sb21  1  0.84300425  0.50000000  0.97933550  1
  Sb  Sb22  1  0.17290400  0.50000000  0.49133050  1
  Sb  Sb23  1  0.34300425  0.00000000  0.97933550  1
  O  O24  1  0.51741250  0.00000000  0.34565450  1
  O  O25  1  0.66216350  0.00000000  0.10325900  1
  O  O26  1  0.50080775  0.50000000  0.30828900  1
  O  O27  1  0.50468100  0.50000000  0.79837600  1
  O  O28  1  0.66674600  0.50000000  0.09774800  1
  O  O29  1  0.83276600  0.00000000  0.58404450  1
  O  O30  1  0.82941950  0.50000000  0.60673300  1
  O  O31  1  0.98382525  0.50000000  0.85553550  1
  O  O32  1  0.58900100  0.75388900  0.58763600  1
  O  O33  1  0.58900100  0.24611100  0.58763600  1
  O  O34  1  0.73464425  0.77598975  0.34866800  1
  O  O35  1  0.73464425  0.22401025  0.34866800  1
  O  O36  1  0.75704900  0.28095100  0.85743550  1
  O  O37  1  0.75704900  0.71904900  0.85743550  1
  O  O38  1  0.91888900  0.25473400  0.09431550  1
  O  O39  1  0.91888900  0.74526600  0.09431550  1
  O  O40  1  0.01741250  0.50000000  0.34565450  1
  O  O41  1  0.16216350  0.50000000  0.10325900  1
  O  O42  1  0.00080775  0.00000000  0.30828900  1
  O  O43  1  0.00468100  0.00000000  0.79837600  1
  O  O44  1  0.16674600  0.00000000  0.09774800  1
  O  O45  1  0.33276600  0.50000000  0.58404450  1
  O  O46  1  0.32941950  0.00000000  0.60673300  1
  O  O47  1  0.48382525  0.00000000  0.85553550  1
  O  O48  1  0.08900100  0.25388900  0.58763600  1
  O  O49  1  0.08900100  0.74611100  0.58763600  1
  O  O50  1  0.23464425  0.27598975  0.34866800  1
  O  O51  1  0.23464425  0.72401025  0.34866800  1
  O  O52  1  0.25704900  0.78095100  0.85743550  1
  O  O53  1  0.25704900  0.21904900  0.85743550  1
  O  O54  1  0.41888900  0.75473400  0.09431550  1
  O  O55  1  0.41888900  0.24526600  0.09431550  1
