# generated using pymatgen
data_Co6O7F5
_symmetry_space_group_name_H-M   'P 1'
_cell_length_a   9.21946000
_cell_length_b   6.15404200
_cell_length_c   7.66782229
_cell_angle_alpha   90.00000000
_cell_angle_beta   118.02237372
_cell_angle_gamma   90.00000000
_symmetry_Int_Tables_number   1
_chemical_formula_structural   Co6O7F5
_chemical_formula_sum   'Co12 O14 F10'
_cell_volume   384.04550915
_cell_formula_units_Z   2
loop_
 _symmetry_equiv_pos_site_id
 _symmetry_equiv_pos_as_xyz
  1  'x, y, z'
loop_
 _atom_site_type_symbol
 _atom_site_label
 _atom_site_symmetry_multiplicity
 _atom_site_fract_x
 _atom_site_fract_y
 _atom_site_fract_z
 _atom_site_occupancy
  Co  Co0  1  0.33495400  0.00000000  0.83474800  1
  Co  Co1  1  0.84354400  0.50000000  0.33039100  1
  Co  Co2  1  0.16648600  0.50000000  0.65421300  1
  Co  Co3  1  0.15402800  0.50000000  0.18551300  1
  Co  Co4  1  0.00169700  0.00000000  0.49755200  1
  Co  Co5  1  0.49853200  0.50000000  0.00171200  1
  Co  Co6  1  0.83495400  0.50000000  0.83474800  1
  Co  Co7  1  0.34354400  0.00000000  0.33039100  1
  Co  Co8  1  0.66648600  0.00000000  0.65421300  1
  Co  Co9  1  0.65402800  0.00000000  0.18551300  1
  Co  Co10  1  0.50169700  0.50000000  0.49755200  1
  Co  Co11  1  0.99853200  0.00000000  0.00171200  1
  O  O12  1  0.33039550  0.69264050  0.33092100  1
  O  O13  1  0.66937950  0.69591750  0.66401700  1
  O  O14  1  0.06178800  0.50000000  0.37416300  1
  O  O15  1  0.83039550  0.80735950  0.33092100  1
  O  O16  1  0.16937950  0.80408250  0.66401700  1
  O  O17  1  0.99816300  0.30889800  0.00761700  1
  O  O18  1  0.99816300  0.69110200  0.00761700  1
  O  O19  1  0.83039550  0.19264050  0.33092100  1
  O  O20  1  0.16937950  0.19591750  0.66401700  1
  O  O21  1  0.56178800  0.00000000  0.37416300  1
  O  O22  1  0.33039550  0.30735950  0.33092100  1
  O  O23  1  0.66937950  0.30408250  0.66401700  1
  O  O24  1  0.49816300  0.80889800  0.00761700  1
  O  O25  1  0.49816300  0.19110200  0.00761700  1
  F  F26  1  0.43691500  0.00000000  0.62821800  1
  F  F27  1  0.10516900  0.00000000  0.29165100  1
  F  F28  1  0.77071100  0.00000000  0.95366700  1
  F  F29  1  0.72534100  0.50000000  0.03365100  1
  F  F30  1  0.40496000  0.50000000  0.70941100  1
  F  F31  1  0.93691500  0.50000000  0.62821800  1
  F  F32  1  0.60516900  0.50000000  0.29165100  1
  F  F33  1  0.27071100  0.50000000  0.95366700  1
  F  F34  1  0.22534100  0.00000000  0.03365100  1
  F  F35  1  0.90496000  0.00000000  0.70941100  1
