# generated using pymatgen
data_Li4Mn3OF8
_symmetry_space_group_name_H-M   'P 1'
_cell_length_a   9.90228000
_cell_length_b   2.99441000
_cell_length_c   11.66797594
_cell_angle_alpha   90.00000000
_cell_angle_beta   102.15544788
_cell_angle_gamma   90.00000000
_symmetry_Int_Tables_number   1
_chemical_formula_structural   Li4Mn3OF8
_chemical_formula_sum   'Li8 Mn6 O2 F16'
_cell_volume   338.21609014
_cell_formula_units_Z   2
loop_
 _symmetry_equiv_pos_site_id
 _symmetry_equiv_pos_as_xyz
  1  'x, y, z'
loop_
 _atom_site_type_symbol
 _atom_site_label
 _atom_site_symmetry_multiplicity
 _atom_site_fract_x
 _atom_site_fract_y
 _atom_site_fract_z
 _atom_site_occupancy
  Li  Li0  1  0.64047400  0.50000000  0.54882500  1
  Li  Li1  1  0.76857800  0.00000000  0.12614300  1
  Li  Li2  1  0.86168500  0.00000000  0.44432900  1
  Li  Li3  1  0.50006300  0.50000000  0.00292500  1
  Li  Li4  1  0.14047400  0.00000000  0.54882500  1
  Li  Li5  1  0.26857800  0.50000000  0.12614300  1
  Li  Li6  1  0.36168500  0.50000000  0.44432900  1
  Li  Li7  1  0.00006300  0.00000000  0.00292500  1
  Mn  Mn8  1  0.55715500  0.00000000  0.28771800  1
  Mn  Mn9  1  0.74791800  0.50000000  0.88052200  1
  Mn  Mn10  1  0.92940000  0.50000000  0.71797400  1
  Mn  Mn11  1  0.05715500  0.50000000  0.28771800  1
  Mn  Mn12  1  0.24791800  0.00000000  0.88052200  1
  Mn  Mn13  1  0.42940000  0.00000000  0.71797400  1
  O  O14  1  0.87541200  0.00000000  0.83596000  1
  O  O15  1  0.37541200  0.50000000  0.83596000  1
  F  F16  1  0.63145600  0.00000000  0.96031100  1
  F  F17  1  0.59344500  0.50000000  0.71051100  1
  F  F18  1  0.62418200  0.50000000  0.16574700  1
  F  F19  1  0.69204700  0.50000000  0.39265000  1
  F  F20  1  0.80374500  0.00000000  0.59442400  1
  F  F21  1  0.89924900  0.00000000  0.28046700  1
  F  F22  1  0.87428600  0.50000000  0.06362100  1
  F  F23  1  0.50089800  0.00000000  0.48787500  1
  F  F24  1  0.13145600  0.50000000  0.96031100  1
  F  F25  1  0.09344500  0.00000000  0.71051100  1
  F  F26  1  0.12418200  0.00000000  0.16574700  1
  F  F27  1  0.19204700  0.00000000  0.39265000  1
  F  F28  1  0.30374500  0.50000000  0.59442400  1
  F  F29  1  0.39924900  0.50000000  0.28046700  1
  F  F30  1  0.37428600  0.00000000  0.06362100  1
  F  F31  1  0.00089800  0.50000000  0.48787500  1
