# generated using pymatgen
data_LiMn2(PO4)2
_symmetry_space_group_name_H-M   'P 1'
_cell_length_a   5.30132884
_cell_length_b   6.10074707
_cell_length_c   10.77625102
_cell_angle_alpha   90.00000000
_cell_angle_beta   118.85041407
_cell_angle_gamma   90.00000000
_symmetry_Int_Tables_number   1
_chemical_formula_structural   LiMn2(PO4)2
_chemical_formula_sum   'Li2 Mn4 P4 O16'
_cell_volume   305.26800450
_cell_formula_units_Z   2
loop_
 _symmetry_equiv_pos_site_id
 _symmetry_equiv_pos_as_xyz
  1  'x, y, z'
loop_
 _atom_site_type_symbol
 _atom_site_label
 _atom_site_symmetry_multiplicity
 _atom_site_fract_x
 _atom_site_fract_y
 _atom_site_fract_z
 _atom_site_occupancy
  Li  Li0  1  0.81265800  0.12800550  0.44171600  1
  Li  Li1  1  0.81265800  0.87199450  0.94171600  1
  Mn  Mn2  1  0.89406600  0.62087150  0.66479000  1
  Mn  Mn3  1  0.18599600  0.14904450  0.85920300  1
  Mn  Mn4  1  0.89406600  0.37912850  0.16479000  1
  Mn  Mn5  1  0.18599600  0.85095550  0.35920300  1
  P  P6  1  0.62868400  0.61028850  0.36355800  1
  P  P7  1  0.36524900  0.10274250  0.13359300  1
  P  P8  1  0.62868400  0.38971150  0.86355800  1
  P  P9  1  0.36524900  0.89725750  0.63359300  1
  O  O10  1  0.28584000  0.60570650  0.26929800  1
  O  O11  1  0.20010500  0.08410350  0.22067900  1
  O  O12  1  0.67592000  0.82667950  0.45025700  1
  O  O13  1  0.73289800  0.42079050  0.47027400  1
  O  O14  1  0.24369200  0.92918750  0.00854800  1
  O  O15  1  0.27621400  0.31590550  0.04116600  1
  O  O16  1  0.28584000  0.39429350  0.76929800  1
  O  O17  1  0.20010500  0.91589650  0.72067900  1
  O  O18  1  0.77654100  0.62173050  0.27102100  1
  O  O19  1  0.69212600  0.10544350  0.23248800  1
  O  O20  1  0.67592000  0.17332050  0.95025700  1
  O  O21  1  0.73289800  0.57920950  0.97027400  1
  O  O22  1  0.24369200  0.07081250  0.50854800  1
  O  O23  1  0.27621400  0.68409450  0.54116600  1
  O  O24  1  0.77654100  0.37826950  0.77102100  1
  O  O25  1  0.69212600  0.89455650  0.73248800  1
