# generated using pymatgen
data_LiCrPO5
_symmetry_space_group_name_H-M   'P 1'
_cell_length_a   8.59179800
_cell_length_b   10.29829200
_cell_length_c   9.13723202
_cell_angle_alpha   90.00000000
_cell_angle_beta   90.00365575
_cell_angle_gamma   90.00000000
_symmetry_Int_Tables_number   1
_chemical_formula_structural   LiCrPO5
_chemical_formula_sum   'Li8 Cr8 P8 O40'
_cell_volume   808.47000475
_cell_formula_units_Z   8
loop_
 _symmetry_equiv_pos_site_id
 _symmetry_equiv_pos_as_xyz
  1  'x, y, z'
loop_
 _atom_site_type_symbol
 _atom_site_label
 _atom_site_symmetry_multiplicity
 _atom_site_fract_x
 _atom_site_fract_y
 _atom_site_fract_z
 _atom_site_occupancy
  Li  Li0  1  0.75271500  0.99793400  0.18121500  1
  Li  Li1  1  0.97989800  0.11719800  0.83429000  1
  Li  Li2  1  0.02010200  0.61719800  0.16571000  1
  Li  Li3  1  0.24728500  0.49793400  0.81878500  1
  Li  Li4  1  0.30353400  0.04750300  0.47472100  1
  Li  Li5  1  0.46627900  0.38959900  0.16322600  1
  Li  Li6  1  0.53372100  0.88959900  0.83677400  1
  Li  Li7  1  0.69646600  0.54750300  0.52527900  1
  Cr  Cr8  1  0.88866300  0.61025400  0.84224100  1
  Cr  Cr9  1  0.89634700  0.88750000  0.64139500  1
  Cr  Cr10  1  0.10365300  0.38750000  0.35860500  1
  Cr  Cr11  1  0.11133700  0.11025400  0.15775900  1
  Cr  Cr12  1  0.38899000  0.88446400  0.15324400  1
  Cr  Cr13  1  0.39155700  0.60757200  0.35431900  1
  Cr  Cr14  1  0.60844300  0.10757200  0.64568100  1
  Cr  Cr15  1  0.61101000  0.38446400  0.84675600  1
  P  P16  1  0.90300600  0.14356500  0.44714800  1
  P  P17  1  0.92224300  0.37109200  0.04684000  1
  P  P18  1  0.07775700  0.87109200  0.95316000  1
  P  P19  1  0.09699400  0.64356500  0.55285200  1
  P  P20  1  0.40201000  0.35505600  0.55681700  1
  P  P21  1  0.41929000  0.13005900  0.95418400  1
  P  P22  1  0.58071000  0.63005900  0.04581600  1
  P  P23  1  0.59799000  0.85505600  0.44318300  1
  O  O24  1  0.73789900  0.99563300  0.73586800  1
  O  O25  1  0.74586300  0.50909200  0.74707700  1
  O  O26  1  0.75698300  0.63100400  0.01753300  1
  O  O27  1  0.77450500  0.86758300  0.46715100  1
  O  O28  1  0.80806200  0.75625000  0.74008800  1
  O  O29  1  0.93026300  0.09365500  0.28772300  1
  O  O30  1  0.95102300  0.42680200  0.20198700  1
  O  O31  1  0.95070400  0.28585500  0.46433300  1
  O  O32  1  0.00677800  0.55634500  0.44189500  1
  O  O33  1  0.01675400  0.73135300  0.97464000  1
  O  O34  1  0.99227000  0.96562900  0.06027000  1
  O  O35  1  0.00773000  0.46562900  0.93973000  1
  O  O36  1  0.98324600  0.23135300  0.02536000  1
  O  O37  1  0.99322200  0.05634500  0.55810500  1
  O  O38  1  0.04929600  0.78585500  0.53566700  1
  O  O39  1  0.04897700  0.92680200  0.79801300  1
  O  O40  1  0.06973700  0.59365500  0.71227700  1
  O  O41  1  0.19193800  0.25625000  0.25991200  1
  O  O42  1  0.22549500  0.36758300  0.53284900  1
  O  O43  1  0.24301700  0.13100400  0.98246700  1
  O  O44  1  0.26210100  0.49563300  0.26413200  1
  O  O45  1  0.25413700  0.00909200  0.25292300  1
  O  O46  1  0.25385200  0.86861500  0.98140600  1
  O  O47  1  0.27456400  0.63468900  0.53112300  1
  O  O48  1  0.30708100  0.75027800  0.25478200  1
  O  O49  1  0.42669200  0.39976300  0.71716700  1
  O  O50  1  0.44702000  0.07765300  0.79760000  1
  O  O51  1  0.44444100  0.21047600  0.53493700  1
  O  O52  1  0.50077900  0.94535900  0.54733100  1
  O  O53  1  0.51944600  0.76904500  0.01968900  1
  O  O54  1  0.49468100  0.53202300  0.94257600  1
  O  O55  1  0.50531900  0.03202300  0.05742400  1
  O  O56  1  0.48055400  0.26904500  0.98031100  1
  O  O57  1  0.49922100  0.44535900  0.45266900  1
  O  O58  1  0.55555900  0.71047600  0.46506300  1
  O  O59  1  0.55298000  0.57765300  0.20240000  1
  O  O60  1  0.57330800  0.89976300  0.28283300  1
  O  O61  1  0.69291900  0.25027800  0.74521800  1
  O  O62  1  0.72543600  0.13468900  0.46887700  1
  O  O63  1  0.74614800  0.36861500  0.01859400  1
