# generated using pymatgen
data_K6Cr2O9
_symmetry_space_group_name_H-M   'P 1'
_cell_length_a   9.54761000
_cell_length_b   8.56813800
_cell_length_c   7.86959679
_cell_angle_alpha   90.00000000
_cell_angle_beta   91.18771924
_cell_angle_gamma   90.00000000
_symmetry_Int_Tables_number   1
_chemical_formula_structural   K6Cr2O9
_chemical_formula_sum   'K12 Cr4 O18'
_cell_volume   643.63593902
_cell_formula_units_Z   2
loop_
 _symmetry_equiv_pos_site_id
 _symmetry_equiv_pos_as_xyz
  1  'x, y, z'
loop_
 _atom_site_type_symbol
 _atom_site_label
 _atom_site_symmetry_multiplicity
 _atom_site_fract_x
 _atom_site_fract_y
 _atom_site_fract_z
 _atom_site_occupancy
  K  K0  1  0.49970200  0.00000000  0.98258400  1
  K  K1  1  0.24827400  0.75310300  0.26620800  1
  K  K2  1  0.75178750  0.24518350  0.77959700  1
  K  K3  1  0.00412700  0.00000000  0.53551400  1
  K  K4  1  0.75178750  0.75481650  0.77959700  1
  K  K5  1  0.24827400  0.24689700  0.26620800  1
  K  K6  1  0.99970200  0.50000000  0.98258400  1
  K  K7  1  0.74827400  0.25310300  0.26620800  1
  K  K8  1  0.25178750  0.74518350  0.77959700  1
  K  K9  1  0.50412700  0.50000000  0.53551400  1
  K  K10  1  0.25178750  0.25481650  0.77959700  1
  K  K11  1  0.74827400  0.74689700  0.26620800  1
  Cr  Cr12  1  0.48890500  0.00000000  0.50921500  1
  Cr  Cr13  1  0.02983900  0.00000000  0.98604300  1
  Cr  Cr14  1  0.98890500  0.50000000  0.50921500  1
  Cr  Cr15  1  0.52983900  0.50000000  0.98604300  1
  O  O16  1  0.20284000  0.00000000  0.05964300  1
  O  O17  1  0.50447300  0.33213000  0.87286400  1
  O  O18  1  0.32405000  0.00000000  0.60226700  1
  O  O19  1  0.50024500  0.17125700  0.39195400  1
  O  O20  1  0.50024500  0.82874300  0.39195400  1
  O  O21  1  0.62998800  0.00000000  0.65243100  1
  O  O22  1  0.50447300  0.66787000  0.87286400  1
  O  O23  1  0.76810600  0.00000000  0.07434000  1
  O  O24  1  0.90738400  0.00000000  0.15921900  1
  O  O25  1  0.70284000  0.50000000  0.05964300  1
  O  O26  1  0.00447300  0.83213000  0.87286400  1
  O  O27  1  0.82405000  0.50000000  0.60226700  1
  O  O28  1  0.00024500  0.67125700  0.39195400  1
  O  O29  1  0.00024500  0.32874300  0.39195400  1
  O  O30  1  0.12998800  0.50000000  0.65243100  1
  O  O31  1  0.00447300  0.16787000  0.87286400  1
  O  O32  1  0.26810600  0.50000000  0.07434000  1
  O  O33  1  0.40738400  0.50000000  0.15921900  1
