# generated using pymatgen
data_LiFeSiO4
_symmetry_space_group_name_H-M   'P 1'
_cell_length_a   13.87290705
_cell_length_b   13.87290705
_cell_length_c   9.46665338
_cell_angle_alpha   90.00000000
_cell_angle_beta   90.00000000
_cell_angle_gamma   120.00000000
_symmetry_Int_Tables_number   1
_chemical_formula_structural   LiFeSiO4
_chemical_formula_sum   'Li18 Fe18 Si18 O72'
_cell_volume   1577.83672581
_cell_formula_units_Z   18
loop_
 _symmetry_equiv_pos_site_id
 _symmetry_equiv_pos_as_xyz
  1  'x, y, z'
loop_
 _atom_site_type_symbol
 _atom_site_label
 _atom_site_symmetry_multiplicity
 _atom_site_fract_x
 _atom_site_fract_y
 _atom_site_fract_z
 _atom_site_occupancy
  Li  Li0  1  0.01730333  0.20979667  0.75013767  1
  Li  Li1  1  0.80750667  0.01730333  0.24986233  1
  Li  Li2  1  0.20979667  0.19249333  0.24986233  1
  Li  Li3  1  0.79020333  0.80750667  0.75013767  1
  Li  Li4  1  0.19249333  0.98269667  0.75013767  1
  Li  Li5  1  0.98269667  0.79020333  0.24986233  1
  Li  Li6  1  0.68397000  0.54313000  0.08347100  1
  Li  Li7  1  0.47417333  0.35063667  0.58319567  1
  Li  Li8  1  0.87646333  0.52582667  0.58319567  1
  Li  Li9  1  0.45687000  0.14084000  0.08347100  1
  Li  Li10  1  0.85916000  0.31603000  0.08347100  1
  Li  Li11  1  0.64936333  0.12353667  0.58319567  1
  Li  Li12  1  0.35063667  0.87646333  0.41680433  1
  Li  Li13  1  0.14084000  0.68397000  0.91652900  1
  Li  Li14  1  0.54313000  0.85916000  0.91652900  1
  Li  Li15  1  0.12353667  0.47417333  0.41680433  1
  Li  Li16  1  0.52582667  0.64936333  0.41680433  1
  Li  Li17  1  0.31603000  0.45687000  0.91652900  1
  Fe  Fe18  1  0.86344967  0.31383533  0.42289333  1
  Fe  Fe19  1  0.31383533  0.45038567  0.57710667  1
  Fe  Fe20  1  0.54961433  0.86344967  0.57710667  1
  Fe  Fe21  1  0.45038567  0.13655033  0.42289333  1
  Fe  Fe22  1  0.68616467  0.54961433  0.42289333  1
  Fe  Fe23  1  0.13655033  0.68616467  0.57710667  1
  Fe  Fe24  1  0.53011633  0.64716867  0.75622667  1
  Fe  Fe25  1  0.98050200  0.78371900  0.91044000  1
  Fe  Fe26  1  0.21628100  0.19678300  0.91044000  1
  Fe  Fe27  1  0.11705233  0.46988367  0.75622667  1
  Fe  Fe28  1  0.35283133  0.88294767  0.75622667  1
  Fe  Fe29  1  0.80321700  0.01949800  0.91044000  1
  Fe  Fe30  1  0.19678300  0.98050200  0.08956000  1
  Fe  Fe31  1  0.64716867  0.11705233  0.24377333  1
  Fe  Fe32  1  0.88294767  0.53011633  0.24377333  1
  Fe  Fe33  1  0.78371900  0.80321700  0.08956000  1
  Fe  Fe34  1  0.01949800  0.21628100  0.08956000  1
  Fe  Fe35  1  0.46988367  0.35283133  0.24377333  1
  Si  Si36  1  0.01729967  0.20641933  0.42191433  1
  Si  Si37  1  0.81088033  0.01729967  0.57808567  1
  Si  Si38  1  0.20641933  0.18911967  0.57808567  1
  Si  Si39  1  0.79358067  0.81088033  0.42191433  1
  Si  Si40  1  0.18911967  0.98270033  0.42191433  1
  Si  Si41  1  0.98270033  0.79358067  0.57808567  1
  Si  Si42  1  0.68396633  0.53975267  0.75524767  1
  Si  Si43  1  0.47754700  0.35063300  0.91141900  1
  Si  Si44  1  0.87308600  0.52245300  0.91141900  1
  Si  Si45  1  0.46024733  0.14421367  0.75524767  1
  Si  Si46  1  0.85578633  0.31603367  0.75524767  1
  Si  Si47  1  0.64936700  0.12691400  0.91141900  1
  Si  Si48  1  0.35063300  0.87308600  0.08858100  1
  Si  Si49  1  0.14421367  0.68396633  0.24475233  1
  Si  Si50  1  0.53975267  0.85578633  0.24475233  1
  Si  Si51  1  0.12691400  0.47754700  0.08858100  1
  Si  Si52  1  0.52245300  0.64936700  0.08858100  1
  Si  Si53  1  0.31603367  0.46024733  0.24475233  1
  O  O54  1  0.79145733  0.23795367  0.25787667  1
  O  O55  1  0.23795367  0.44649633  0.74212333  1
  O  O56  1  0.00430100  0.31613800  0.43056200  1
  O  O57  1  0.31613800  0.31183700  0.56943800  1
  O  O58  1  0.07049567  0.19730633  0.27322233  1
  O  O59  1  0.09451400  0.20460500  0.55635300  1
  O  O60  1  0.68816300  0.00430100  0.56943800  1
  O  O61  1  0.88990900  0.09451400  0.44364700  1
  O  O62  1  0.87318933  0.07049567  0.72677767  1
  O  O63  1  0.19730633  0.12681067  0.72677767  1
  O  O64  1  0.20460500  0.11009100  0.44364700  1
  O  O65  1  0.55350367  0.79145733  0.74212333  1
  O  O66  1  0.44649633  0.20854267  0.25787667  1
  O  O67  1  0.79539500  0.88990900  0.55635300  1
  O  O68  1  0.80269367  0.87318933  0.27322233  1
  O  O69  1  0.12681067  0.92950433  0.27322233  1
  O  O70  1  0.11009100  0.90548600  0.55635300  1
  O  O71  1  0.31183700  0.99569900  0.43056200  1
  O  O72  1  0.90548600  0.79539500  0.44364700  1
  O  O73  1  0.92950433  0.80269367  0.72677767  1
  O  O74  1  0.68386200  0.68816300  0.43056200  1
  O  O75  1  0.99569900  0.68386200  0.56943800  1
  O  O76  1  0.76204633  0.55350367  0.25787667  1
  O  O77  1  0.20854267  0.76204633  0.74212333  1
  O  O78  1  0.45812400  0.57128700  0.59121000  1
  O  O79  1  0.90462033  0.77982967  0.07545667  1
  O  O80  1  0.67096767  0.64947133  0.76389533  1
  O  O81  1  0.98280467  0.64517033  0.90277133  1
  O  O82  1  0.73716233  0.53063967  0.60655567  1
  O  O83  1  0.76118067  0.53793833  0.88968633  1
  O  O84  1  0.35482967  0.33763433  0.90277133  1
  O  O85  1  0.55657567  0.42784733  0.77698033  1
  O  O86  1  0.53985600  0.40382900  0.06011100  1
  O  O87  1  0.86397300  0.46014400  0.06011100  1
  O  O88  1  0.87127167  0.44342433  0.77698033  1
  O  O89  1  0.22017033  0.12479067  0.07545667  1
  O  O90  1  0.11316300  0.54187600  0.59121000  1
  O  O91  1  0.46206167  0.22324233  0.88968633  1
  O  O92  1  0.46936033  0.20652267  0.60655567  1
  O  O93  1  0.79347733  0.26283767  0.60655567  1
  O  O94  1  0.77675767  0.23881933  0.88968633  1
  O  O95  1  0.97850367  0.32903233  0.76389533  1
  O  O96  1  0.57215267  0.12872833  0.77698033  1
  O  O97  1  0.59617100  0.13602700  0.06011100  1
  O  O98  1  0.35052867  0.02149633  0.76389533  1
  O  O99  1  0.66236567  0.01719533  0.90277133  1
  O  O100  1  0.42871300  0.88683700  0.59121000  1
  O  O101  1  0.87520933  0.09537967  0.07545667  1
  O  O102  1  0.12479067  0.90462033  0.92454333  1
  O  O103  1  0.57128700  0.11316300  0.40879000  1
  O  O104  1  0.33763433  0.98280467  0.09722867  1
  O  O105  1  0.64947133  0.97850367  0.23610467  1
  O  O106  1  0.40382900  0.86397300  0.93988900  1
  O  O107  1  0.42784733  0.87127167  0.22301967  1
  O  O108  1  0.02149633  0.67096767  0.23610467  1
  O  O109  1  0.22324233  0.76118067  0.11031367  1
  O  O110  1  0.20652267  0.73716233  0.39344433  1
  O  O111  1  0.53063967  0.79347733  0.39344433  1
  O  O112  1  0.53793833  0.77675767  0.11031367  1
  O  O113  1  0.88683700  0.45812400  0.40879000  1
  O  O114  1  0.77982967  0.87520933  0.92454333  1
  O  O115  1  0.12872833  0.55657567  0.22301967  1
  O  O116  1  0.13602700  0.53985600  0.93988900  1
  O  O117  1  0.46014400  0.59617100  0.93988900  1
  O  O118  1  0.44342433  0.57215267  0.22301967  1
  O  O119  1  0.64517033  0.66236567  0.09722867  1
  O  O120  1  0.23881933  0.46206167  0.11031367  1
  O  O121  1  0.26283767  0.46936033  0.39344433  1
  O  O122  1  0.01719533  0.35482967  0.09722867  1
  O  O123  1  0.32903233  0.35052867  0.23610467  1
  O  O124  1  0.09537967  0.22017033  0.92454333  1
  O  O125  1  0.54187600  0.42871300  0.40879000  1
