# generated using pymatgen
data_RbPd2F5
_symmetry_space_group_name_H-M   'P 1'
_cell_length_a   6.50410000
_cell_length_b   7.78794000
_cell_length_c   10.91740600
_cell_angle_alpha   90.00000000
_cell_angle_beta   90.00000000
_cell_angle_gamma   90.00000000
_symmetry_Int_Tables_number   1
_chemical_formula_structural   RbPd2F5
_chemical_formula_sum   'Rb4 Pd8 F20'
_cell_volume   553.00526757
_cell_formula_units_Z   4
loop_
 _symmetry_equiv_pos_site_id
 _symmetry_equiv_pos_as_xyz
  1  'x, y, z'
loop_
 _atom_site_type_symbol
 _atom_site_label
 _atom_site_symmetry_multiplicity
 _atom_site_fract_x
 _atom_site_fract_y
 _atom_site_fract_z
 _atom_site_occupancy
  Rb  Rb0  1  0.50000000  0.25000000  0.89414400  1
  Rb  Rb1  1  0.50000000  0.75000000  0.10585600  1
  Rb  Rb2  1  0.00000000  0.75000000  0.39414400  1
  Rb  Rb3  1  0.00000000  0.25000000  0.60585600  1
  Pd  Pd4  1  0.00000000  0.50000000  0.00000000  1
  Pd  Pd5  1  0.00000000  0.00000000  0.00000000  1
  Pd  Pd6  1  0.25000000  0.25000000  0.25000000  1
  Pd  Pd7  1  0.75000000  0.25000000  0.25000000  1
  Pd  Pd8  1  0.50000000  0.00000000  0.50000000  1
  Pd  Pd9  1  0.50000000  0.50000000  0.50000000  1
  Pd  Pd10  1  0.75000000  0.75000000  0.75000000  1
  Pd  Pd11  1  0.25000000  0.75000000  0.75000000  1
  F  F12  1  0.24000250  0.06896050  0.38035250  1
  F  F13  1  0.24000250  0.93103950  0.61964750  1
  F  F14  1  0.25999750  0.06896050  0.11964750  1
  F  F15  1  0.25999750  0.93103950  0.88035250  1
  F  F16  1  0.75999750  0.93103950  0.61964750  1
  F  F17  1  0.75999750  0.06896050  0.38035250  1
  F  F18  1  0.00000000  0.75000000  0.09300600  1
  F  F19  1  0.00000000  0.25000000  0.90699400  1
  F  F20  1  0.74000250  0.06896050  0.11964750  1
  F  F21  1  0.74000250  0.93103950  0.88035250  1
  F  F22  1  0.74000250  0.56896050  0.88035250  1
  F  F23  1  0.74000250  0.43103950  0.11964750  1
  F  F24  1  0.75999750  0.56896050  0.61964750  1
  F  F25  1  0.75999750  0.43103950  0.38035250  1
  F  F26  1  0.25999750  0.43103950  0.11964750  1
  F  F27  1  0.25999750  0.56896050  0.88035250  1
  F  F28  1  0.50000000  0.25000000  0.59300600  1
  F  F29  1  0.50000000  0.75000000  0.40699400  1
  F  F30  1  0.24000250  0.56896050  0.61964750  1
  F  F31  1  0.24000250  0.43103950  0.38035250  1
