# generated using pymatgen
data_Li3CrP2O9
_symmetry_space_group_name_H-M   'P 1'
_cell_length_a   6.82362400
_cell_length_b   8.83854700
_cell_length_c   11.68512585
_cell_angle_alpha   90.00000000
_cell_angle_beta   90.53523335
_cell_angle_gamma   90.00000000
_symmetry_Int_Tables_number   1
_chemical_formula_structural   Li3CrP2O9
_chemical_formula_sum   'Li12 Cr4 P8 O36'
_cell_volume   704.70995757
_cell_formula_units_Z   4
loop_
 _symmetry_equiv_pos_site_id
 _symmetry_equiv_pos_as_xyz
  1  'x, y, z'
loop_
 _atom_site_type_symbol
 _atom_site_label
 _atom_site_symmetry_multiplicity
 _atom_site_fract_x
 _atom_site_fract_y
 _atom_site_fract_z
 _atom_site_occupancy
  Li  Li0  1  0.39279100  0.61025700  0.07945000  1
  Li  Li1  1  0.31668600  0.75481300  0.49191700  1
  Li  Li2  1  0.24058400  0.09440800  0.74347100  1
  Li  Li3  1  0.26003000  0.90568400  0.24362500  1
  Li  Li4  1  0.18353900  0.24542800  0.99098200  1
  Li  Li5  1  0.10709900  0.38937700  0.57913800  1
  Li  Li6  1  0.89290100  0.88937700  0.42086200  1
  Li  Li7  1  0.81646100  0.74542800  0.00901800  1
  Li  Li8  1  0.73997000  0.40568400  0.75637500  1
  Li  Li9  1  0.75941600  0.59440800  0.25652900  1
  Li  Li10  1  0.68331400  0.25481300  0.50808300  1
  Li  Li11  1  0.60720900  0.11025700  0.92055000  1
  Cr  Cr12  1  0.48103200  0.24482600  0.24513300  1
  Cr  Cr13  1  0.02067100  0.75468500  0.74668100  1
  Cr  Cr14  1  0.97932900  0.25468500  0.25331900  1
  Cr  Cr15  1  0.51896800  0.74482600  0.75486700  1
  P  P16  1  0.26919700  0.87248600  0.96179700  1
  P  P17  1  0.26436600  0.46351800  0.83157100  1
  P  P18  1  0.23528200  0.53638100  0.33095100  1
  P  P19  1  0.23081000  0.12806500  0.46149700  1
  P  P20  1  0.76919000  0.62806500  0.53850300  1
  P  P21  1  0.76471800  0.03638100  0.66904900  1
  P  P22  1  0.73563400  0.96351800  0.16842900  1
  P  P23  1  0.73080300  0.37248600  0.03820300  1
  O  O24  1  0.45102500  0.78263700  0.91230300  1
  O  O25  1  0.45595400  0.53078200  0.77670900  1
  O  O26  1  0.42234600  0.19826500  0.40887700  1
  O  O27  1  0.41188200  0.46355600  0.26492500  1
  O  O28  1  0.28968700  0.04011100  0.93083800  1
  O  O29  1  0.28454700  0.79282500  0.70388600  1
  O  O30  1  0.25562200  0.29528500  0.80614400  1
  O  O31  1  0.26655100  0.83134900  0.08798400  1
  O  O32  1  0.24570500  0.51220200  0.46068400  1
  O  O33  1  0.25331300  0.48736000  0.96103300  1
  O  O34  1  0.23421600  0.16841500  0.58809300  1
  O  O35  1  0.24255900  0.70498600  0.30663900  1
  O  O36  1  0.23661700  0.20762200  0.20698400  1
  O  O37  1  0.20798600  0.96019300  0.43081000  1
  O  O38  1  0.08599500  0.54060700  0.76654600  1
  O  O39  1  0.07671100  0.80137500  0.90650400  1
  O  O40  1  0.04135900  0.46685500  0.27701600  1
  O  O41  1  0.04559700  0.21591800  0.41090300  1
  O  O42  1  0.95440300  0.71591800  0.58909700  1
  O  O43  1  0.95864100  0.96685500  0.72298400  1
  O  O44  1  0.92328900  0.30137500  0.09349600  1
  O  O45  1  0.91400500  0.04060700  0.23345400  1
  O  O46  1  0.79201400  0.46019300  0.56919000  1
  O  O47  1  0.76338300  0.70762200  0.79301600  1
  O  O48  1  0.75744100  0.20498600  0.69336100  1
  O  O49  1  0.76578400  0.66841500  0.41190700  1
  O  O50  1  0.74668700  0.98736000  0.03896700  1
  O  O51  1  0.73344900  0.33134900  0.91201600  1
  O  O52  1  0.75429500  0.01220200  0.53931600  1
  O  O53  1  0.74437800  0.79528500  0.19385600  1
  O  O54  1  0.71545300  0.29282500  0.29611400  1
  O  O55  1  0.71031300  0.54011100  0.06916200  1
  O  O56  1  0.58811800  0.96355600  0.73507500  1
  O  O57  1  0.57765400  0.69826500  0.59112300  1
  O  O58  1  0.54404600  0.03078200  0.22329100  1
  O  O59  1  0.54897500  0.28263700  0.08769700  1
