# generated using pymatgen
data_V4CuNiO12
_symmetry_space_group_name_H-M   'P 1'
_cell_length_a   9.89037389
_cell_length_b   8.90993244
_cell_length_c   5.95001231
_cell_angle_alpha   90.00000000
_cell_angle_beta   109.06085656
_cell_angle_gamma   90.00000000
_symmetry_Int_Tables_number   1
_chemical_formula_structural   V4CuNiO12
_chemical_formula_sum   'V8 Cu2 Ni2 O24'
_cell_volume   495.58247851
_cell_formula_units_Z   2
loop_
 _symmetry_equiv_pos_site_id
 _symmetry_equiv_pos_as_xyz
  1  'x, y, z'
loop_
 _atom_site_type_symbol
 _atom_site_label
 _atom_site_symmetry_multiplicity
 _atom_site_fract_x
 _atom_site_fract_y
 _atom_site_fract_z
 _atom_site_occupancy
  V  V0  1  0.20461600  0.59194200  0.99164500  1
  V  V1  1  0.79538400  0.59194200  0.00835500  1
  V  V2  1  0.19886000  0.41049700  0.48371400  1
  V  V3  1  0.80114000  0.41049700  0.51628600  1
  V  V4  1  0.70461600  0.09194200  0.99164500  1
  V  V5  1  0.29538400  0.09194200  0.00835500  1
  V  V6  1  0.69886000  0.91049700  0.48371400  1
  V  V7  1  0.30114000  0.91049700  0.51628600  1
  Cu  Cu8  1  0.00000000  0.91596200  0.00000000  1
  Cu  Cu9  1  0.50000000  0.41596200  0.00000000  1
  Ni  Ni10  1  0.00000000  0.08024200  0.50000000  1
  Ni  Ni11  1  0.50000000  0.58024200  0.50000000  1
  O  O12  1  0.39009600  0.57674500  0.10673500  1
  O  O13  1  0.60990400  0.57674500  0.89326500  1
  O  O14  1  0.14712850  0.77151500  0.98284800  1
  O  O15  1  0.85287150  0.77151500  0.01715200  1
  O  O16  1  0.37961825  0.41457725  0.57737200  1
  O  O17  1  0.62038175  0.41457725  0.42262800  1
  O  O18  1  0.13486150  0.49183150  0.18924500  1
  O  O19  1  0.86513850  0.49183150  0.81075500  1
  O  O20  1  0.14128850  0.51354000  0.69947500  1
  O  O21  1  0.85871150  0.51354000  0.30052500  1
  O  O22  1  0.14327150  0.23180200  0.47146700  1
  O  O23  1  0.85672850  0.23180200  0.52853300  1
  O  O24  1  0.89009600  0.07674500  0.10673500  1
  O  O25  1  0.10990400  0.07674500  0.89326500  1
  O  O26  1  0.64712850  0.27151500  0.98284800  1
  O  O27  1  0.35287150  0.27151500  0.01715200  1
  O  O28  1  0.87961825  0.91457725  0.57737200  1
  O  O29  1  0.12038175  0.91457725  0.42262800  1
  O  O30  1  0.63486150  0.99183150  0.18924500  1
  O  O31  1  0.36513850  0.99183150  0.81075500  1
  O  O32  1  0.64128850  0.01354000  0.69947500  1
  O  O33  1  0.35871150  0.01354000  0.30052500  1
  O  O34  1  0.64327150  0.73180200  0.47146700  1
  O  O35  1  0.35672850  0.73180200  0.52853300  1
