# generated using pymatgen
data_Li4Mn3Cr2Fe3O16
_symmetry_space_group_name_H-M   'P 1'
_cell_length_a   10.20358400
_cell_length_b   5.84590400
_cell_length_c   9.52224311
_cell_angle_alpha   90.00000000
_cell_angle_beta   90.60912311
_cell_angle_gamma   90.00000000
_symmetry_Int_Tables_number   1
_chemical_formula_structural   Li4Mn3Cr2Fe3O16
_chemical_formula_sum   'Li8 Mn6 Cr4 Fe6 O32'
_cell_volume   567.96182423
_cell_formula_units_Z   2
loop_
 _symmetry_equiv_pos_site_id
 _symmetry_equiv_pos_as_xyz
  1  'x, y, z'
loop_
 _atom_site_type_symbol
 _atom_site_label
 _atom_site_symmetry_multiplicity
 _atom_site_fract_x
 _atom_site_fract_y
 _atom_site_fract_z
 _atom_site_occupancy
  Li  Li0  1  0.66841900  0.00000000  0.10471500  1
  Li  Li1  1  0.99823500  0.00000000  0.00297200  1
  Li  Li2  1  0.99889700  0.00000000  0.50471500  1
  Li  Li3  1  0.83462200  0.50000000  0.60646400  1
  Li  Li4  1  0.16841900  0.50000000  0.10471500  1
  Li  Li5  1  0.49823500  0.50000000  0.00297200  1
  Li  Li6  1  0.49889700  0.50000000  0.50471500  1
  Li  Li7  1  0.33462200  0.00000000  0.60646400  1
  Mn  Mn8  1  0.82905100  0.00000000  0.78575900  1
  Mn  Mn9  1  0.91479800  0.25288800  0.28565700  1
  Mn  Mn10  1  0.91479800  0.74711200  0.28565700  1
  Mn  Mn11  1  0.32905100  0.50000000  0.78575900  1
  Mn  Mn12  1  0.41479800  0.75288800  0.28565700  1
  Mn  Mn13  1  0.41479800  0.24711200  0.28565700  1
  Cr  Cr14  1  0.66435800  0.00000000  0.51398700  1
  Cr  Cr15  1  0.83045900  0.50000000  0.01408300  1
  Cr  Cr16  1  0.16435800  0.50000000  0.51398700  1
  Cr  Cr17  1  0.33045900  0.00000000  0.01408300  1
  Fe  Fe18  1  0.58288000  0.75299000  0.78623800  1
  Fe  Fe19  1  0.58288000  0.24701000  0.78623800  1
  Fe  Fe20  1  0.66730300  0.50000000  0.28683100  1
  Fe  Fe21  1  0.08288000  0.25299000  0.78623800  1
  Fe  Fe22  1  0.08288000  0.74701000  0.78623800  1
  Fe  Fe23  1  0.16730300  0.00000000  0.28683100  1
  O  O24  1  0.57670250  0.74656350  0.40024600  1
  O  O25  1  0.51973800  0.00000000  0.65559100  1
  O  O26  1  0.67123800  0.00000000  0.89594800  1
  O  O27  1  0.99297400  0.00000000  0.69076700  1
  O  O28  1  0.99368200  0.00000000  0.18933300  1
  O  O29  1  0.57670250  0.25343650  0.40024600  1
  O  O30  1  0.74443150  0.78126350  0.65935500  1
  O  O31  1  0.74443150  0.21873650  0.65935500  1
  O  O32  1  0.66338500  0.50000000  0.90236800  1
  O  O33  1  0.83865000  0.00000000  0.39494300  1
  O  O34  1  0.76398950  0.27266350  0.16019300  1
  O  O35  1  0.76398950  0.72733650  0.16019300  1
  O  O36  1  0.83875200  0.50000000  0.39264400  1
  O  O37  1  0.91401850  0.24310050  0.90031800  1
  O  O38  1  0.98126100  0.50000000  0.16620000  1
  O  O39  1  0.91401850  0.75689950  0.90031800  1
  O  O40  1  0.07670250  0.24656350  0.40024600  1
  O  O41  1  0.01973800  0.50000000  0.65559100  1
  O  O42  1  0.17123800  0.50000000  0.89594800  1
  O  O43  1  0.49297400  0.50000000  0.69076700  1
  O  O44  1  0.49368200  0.50000000  0.18933300  1
  O  O45  1  0.07670250  0.75343650  0.40024600  1
  O  O46  1  0.24443150  0.28126350  0.65935500  1
  O  O47  1  0.24443150  0.71873650  0.65935500  1
  O  O48  1  0.16338500  0.00000000  0.90236800  1
  O  O49  1  0.33865000  0.50000000  0.39494300  1
  O  O50  1  0.26398950  0.77266350  0.16019300  1
  O  O51  1  0.26398950  0.22733650  0.16019300  1
  O  O52  1  0.33875200  0.00000000  0.39264400  1
  O  O53  1  0.41401850  0.74310050  0.90031800  1
  O  O54  1  0.48126100  0.00000000  0.16620000  1
  O  O55  1  0.41401850  0.25689950  0.90031800  1
