# generated using pymatgen
data_Li2VFeO4
_symmetry_space_group_name_H-M   'P 1'
_cell_length_a   4.12172400
_cell_length_b   4.12172400
_cell_length_c   8.71834800
_cell_angle_alpha   90.00000000
_cell_angle_beta   90.00000000
_cell_angle_gamma   90.00000000
_symmetry_Int_Tables_number   1
_chemical_formula_structural   Li2VFeO4
_chemical_formula_sum   'Li4 V2 Fe2 O8'
_cell_volume   148.11260296
_cell_formula_units_Z   2
loop_
 _symmetry_equiv_pos_site_id
 _symmetry_equiv_pos_as_xyz
  1  'x, y, z'
loop_
 _atom_site_type_symbol
 _atom_site_label
 _atom_site_symmetry_multiplicity
 _atom_site_fract_x
 _atom_site_fract_y
 _atom_site_fract_z
 _atom_site_occupancy
  Li  Li0  1  0.50000000  0.00000000  0.25000000  1
  Li  Li1  1  0.50000000  0.50000000  0.00000000  1
  Li  Li2  1  0.00000000  0.50000000  0.75000000  1
  Li  Li3  1  0.00000000  0.00000000  0.50000000  1
  V  V4  1  0.00000000  0.00000000  0.00000000  1
  V  V5  1  0.50000000  0.50000000  0.50000000  1
  Fe  Fe6  1  0.00000000  0.50000000  0.25000000  1
  Fe  Fe7  1  0.50000000  0.00000000  0.75000000  1
  O  O8  1  0.00000000  0.50000000  0.01346500  1
  O  O9  1  0.00000000  0.00000000  0.23049700  1
  O  O10  1  0.00000000  0.50000000  0.48653500  1
  O  O11  1  0.50000000  0.50000000  0.26950300  1
  O  O12  1  0.50000000  0.00000000  0.51346500  1
  O  O13  1  0.50000000  0.50000000  0.73049700  1
  O  O14  1  0.50000000  0.00000000  0.98653500  1
  O  O15  1  0.00000000  0.00000000  0.76950300  1
