# generated using pymatgen
data_Fe3(O2F)2
_symmetry_space_group_name_H-M   'P 1'
_cell_length_a   6.56193200
_cell_length_b   6.55910200
_cell_length_c   9.15087699
_cell_angle_alpha   90.00000000
_cell_angle_beta   90.26917769
_cell_angle_gamma   90.00000000
_symmetry_Int_Tables_number   1
_chemical_formula_structural   Fe3(O2F)2
_chemical_formula_sum   'Fe12 O16 F8'
_cell_volume   393.85288828
_cell_formula_units_Z   4
loop_
 _symmetry_equiv_pos_site_id
 _symmetry_equiv_pos_as_xyz
  1  'x, y, z'
loop_
 _atom_site_type_symbol
 _atom_site_label
 _atom_site_symmetry_multiplicity
 _atom_site_fract_x
 _atom_site_fract_y
 _atom_site_fract_z
 _atom_site_occupancy
  Fe  Fe0  1  0.02685000  0.99123000  0.15661300  1
  Fe  Fe1  1  0.97315000  0.99123000  0.84338700  1
  Fe  Fe2  1  0.50000000  0.48029000  0.50000000  1
  Fe  Fe3  1  0.50000000  0.99453900  0.00000000  1
  Fe  Fe4  1  0.49388200  0.01717500  0.33896100  1
  Fe  Fe5  1  0.50611800  0.01717500  0.66103900  1
  Fe  Fe6  1  0.52685000  0.49123000  0.15661300  1
  Fe  Fe7  1  0.47315000  0.49123000  0.84338700  1
  Fe  Fe8  1  0.00000000  0.98029000  0.50000000  1
  Fe  Fe9  1  0.00000000  0.49453900  0.00000000  1
  Fe  Fe10  1  0.99388200  0.51717500  0.33896100  1
  Fe  Fe11  1  0.00611800  0.51717500  0.66103900  1
  O  O12  1  0.50000000  0.29075400  0.00000000  1
  O  O13  1  0.49032700  0.31123200  0.67242100  1
  O  O14  1  0.50967300  0.31123200  0.32757900  1
  O  O15  1  0.67812600  0.99844400  0.83632800  1
  O  O16  1  0.69917200  0.00347300  0.49687800  1
  O  O17  1  0.32187400  0.99844400  0.16367200  1
  O  O18  1  0.30082800  0.00347300  0.50312200  1
  O  O19  1  0.50000000  0.69440000  0.00000000  1
  O  O20  1  0.00000000  0.79075400  0.00000000  1
  O  O21  1  0.99032700  0.81123200  0.67242100  1
  O  O22  1  0.00967300  0.81123200  0.32757900  1
  O  O23  1  0.17812600  0.49844400  0.83632800  1
  O  O24  1  0.19917200  0.50347300  0.49687800  1
  O  O25  1  0.82187400  0.49844400  0.16367200  1
  O  O26  1  0.80082800  0.50347300  0.50312200  1
  O  O27  1  0.00000000  0.19440000  0.00000000  1
  F  F28  1  0.70587950  0.99838150  0.16829400  1
  F  F29  1  0.29412050  0.99838150  0.83170600  1
  F  F30  1  0.50816300  0.70007400  0.32968600  1
  F  F31  1  0.49183700  0.70007400  0.67031400  1
  F  F32  1  0.20587950  0.49838150  0.16829400  1
  F  F33  1  0.79412050  0.49838150  0.83170600  1
  F  F34  1  0.00816300  0.20007400  0.32968600  1
  F  F35  1  0.99183700  0.20007400  0.67031400  1
