# generated using pymatgen
data_La2Si5Rh3
_symmetry_space_group_name_H-M   'P 1'
_cell_length_a   5.92313200
_cell_length_b   10.02778200
_cell_length_c   11.93361800
_cell_angle_alpha   90.00000000
_cell_angle_beta   90.00000000
_cell_angle_gamma   90.00000000
_symmetry_Int_Tables_number   1
_chemical_formula_structural   La2Si5Rh3
_chemical_formula_sum   'La8 Si20 Rh12'
_cell_volume   708.80770037
_cell_formula_units_Z   4
loop_
 _symmetry_equiv_pos_site_id
 _symmetry_equiv_pos_as_xyz
  1  'x, y, z'
loop_
 _atom_site_type_symbol
 _atom_site_label
 _atom_site_symmetry_multiplicity
 _atom_site_fract_x
 _atom_site_fract_y
 _atom_site_fract_z
 _atom_site_occupancy
  La  La0  1  0.00000000  0.23277100  0.13078100  1
  La  La1  1  0.00000000  0.76722900  0.86921900  1
  La  La2  1  0.50000000  0.23277100  0.86921900  1
  La  La3  1  0.50000000  0.76722900  0.13078100  1
  La  La4  1  0.50000000  0.73277100  0.63078100  1
  La  La5  1  0.50000000  0.26722900  0.36921900  1
  La  La6  1  0.00000000  0.73277100  0.36921900  1
  La  La7  1  0.00000000  0.26722900  0.63078100  1
  Si  Si8  1  0.25000000  0.00000000  0.00000000  1
  Si  Si9  1  0.75000000  0.00000000  0.00000000  1
  Si  Si10  1  0.75000000  0.50000000  0.22481100  1
  Si  Si11  1  0.75000000  0.50000000  0.77518900  1
  Si  Si12  1  0.25000000  0.50000000  0.77518900  1
  Si  Si13  1  0.25000000  0.50000000  0.22481100  1
  Si  Si14  1  0.50000000  0.65087900  0.89231800  1
  Si  Si15  1  0.00000000  0.34912100  0.89231800  1
  Si  Si16  1  0.00000000  0.65087900  0.10768200  1
  Si  Si17  1  0.50000000  0.34912100  0.10768200  1
  Si  Si18  1  0.75000000  0.50000000  0.50000000  1
  Si  Si19  1  0.25000000  0.50000000  0.50000000  1
  Si  Si20  1  0.25000000  0.00000000  0.72481100  1
  Si  Si21  1  0.25000000  0.00000000  0.27518900  1
  Si  Si22  1  0.75000000  0.00000000  0.27518900  1
  Si  Si23  1  0.75000000  0.00000000  0.72481100  1
  Si  Si24  1  0.00000000  0.15087900  0.39231800  1
  Si  Si25  1  0.50000000  0.84912100  0.39231800  1
  Si  Si26  1  0.50000000  0.15087900  0.60768200  1
  Si  Si27  1  0.00000000  0.84912100  0.60768200  1
  Rh  Rh28  1  0.50000000  0.60931550  0.36146250  1
  Rh  Rh29  1  0.75000000  0.50000000  0.00000000  1
  Rh  Rh30  1  0.00000000  0.39068450  0.36146250  1
  Rh  Rh31  1  0.00000000  0.60931550  0.63853750  1
  Rh  Rh32  1  0.50000000  0.39068450  0.63853750  1
  Rh  Rh33  1  0.25000000  0.50000000  0.00000000  1
  Rh  Rh34  1  0.00000000  0.10931550  0.86146250  1
  Rh  Rh35  1  0.25000000  0.00000000  0.50000000  1
  Rh  Rh36  1  0.50000000  0.89068450  0.86146250  1
  Rh  Rh37  1  0.50000000  0.10931550  0.13853750  1
  Rh  Rh38  1  0.00000000  0.89068450  0.13853750  1
  Rh  Rh39  1  0.75000000  0.00000000  0.50000000  1
