# generated using pymatgen
data_Na14Co2O9
_symmetry_space_group_name_H-M   'P 1'
_cell_length_a   6.65960357
_cell_length_b   6.65960357
_cell_length_c   9.38198202
_cell_angle_alpha   90.00000000
_cell_angle_beta   90.00000000
_cell_angle_gamma   120.00000000
_symmetry_Int_Tables_number   1
_chemical_formula_structural   Na14Co2O9
_chemical_formula_sum   'Na14 Co2 O9'
_cell_volume   360.34788925
_cell_formula_units_Z   1
loop_
 _symmetry_equiv_pos_site_id
 _symmetry_equiv_pos_as_xyz
  1  'x, y, z'
loop_
 _atom_site_type_symbol
 _atom_site_label
 _atom_site_symmetry_multiplicity
 _atom_site_fract_x
 _atom_site_fract_y
 _atom_site_fract_z
 _atom_site_occupancy
  Na  Na0  1  0.00000000  0.00000000  0.74904800  1
  Na  Na1  1  0.00000000  0.00000000  0.25095200  1
  Na  Na2  1  0.32434033  0.96356567  0.09226500  1
  Na  Na3  1  0.63922533  0.67565967  0.09226500  1
  Na  Na4  1  0.03643433  0.36077467  0.09226500  1
  Na  Na5  1  0.96356567  0.63922533  0.90773500  1
  Na  Na6  1  0.36077467  0.32434033  0.90773500  1
  Na  Na7  1  0.67565967  0.03643433  0.90773500  1
  Na  Na8  1  0.06512233  0.68767467  0.40682500  1
  Na  Na9  1  0.62255233  0.93487767  0.40682500  1
  Na  Na10  1  0.68767467  0.62255233  0.59317500  1
  Na  Na11  1  0.31232533  0.37744767  0.40682500  1
  Na  Na12  1  0.37744767  0.06512233  0.59317500  1
  Na  Na13  1  0.93487767  0.31232533  0.59317500  1
  Co  Co14  1  0.33333333  0.66666667  0.73812200  1
  Co  Co15  1  0.66666667  0.33333333  0.26187800  1
  O  O16  1  0.00000000  0.00000000  0.00000000  1
  O  O17  1  0.33333333  0.66666667  0.95538300  1
  O  O18  1  0.66666667  0.33333333  0.04461700  1
  O  O19  1  0.05860333  0.69554267  0.66377200  1
  O  O20  1  0.63693933  0.94139667  0.66377200  1
  O  O21  1  0.69554267  0.63693933  0.33622800  1
  O  O22  1  0.30445733  0.36306067  0.66377200  1
  O  O23  1  0.36306067  0.05860333  0.33622800  1
  O  O24  1  0.94139667  0.30445733  0.33622800  1
