# generated using pymatgen
data_Co2OF3
_symmetry_space_group_name_H-M   'P 1'
_cell_length_a   19.22454000
_cell_length_b   6.10279400
_cell_length_c   4.80451355
_cell_angle_alpha   90.00000000
_cell_angle_beta   92.68144053
_cell_angle_gamma   90.00000000
_symmetry_Int_Tables_number   1
_chemical_formula_structural   Co2OF3
_chemical_formula_sum   'Co16 O8 F24'
_cell_volume   563.06471477
_cell_formula_units_Z   8
loop_
 _symmetry_equiv_pos_site_id
 _symmetry_equiv_pos_as_xyz
  1  'x, y, z'
loop_
 _atom_site_type_symbol
 _atom_site_label
 _atom_site_symmetry_multiplicity
 _atom_site_fract_x
 _atom_site_fract_y
 _atom_site_fract_z
 _atom_site_occupancy
  Co  Co0  1  0.62506500  0.75675500  0.50071400  1
  Co  Co1  1  0.62506500  0.24324500  0.50071400  1
  Co  Co2  1  0.87493500  0.74324500  0.49928600  1
  Co  Co3  1  0.87493500  0.25675500  0.49928600  1
  Co  Co4  1  0.00000000  0.50000000  0.00000000  1
  Co  Co5  1  0.73999700  0.50000000  0.96040100  1
  Co  Co6  1  0.00000000  0.00000000  0.00000000  1
  Co  Co7  1  0.76000300  0.00000000  0.03959900  1
  Co  Co8  1  0.12506500  0.25675500  0.50071400  1
  Co  Co9  1  0.12506500  0.74324500  0.50071400  1
  Co  Co10  1  0.37493500  0.24324500  0.49928600  1
  Co  Co11  1  0.37493500  0.75675500  0.49928600  1
  Co  Co12  1  0.50000000  0.00000000  0.00000000  1
  Co  Co13  1  0.23999700  0.00000000  0.96040100  1
  Co  Co14  1  0.50000000  0.50000000  0.00000000  1
  Co  Co15  1  0.26000300  0.50000000  0.03959900  1
  O  O16  1  0.82976400  0.00000000  0.31939300  1
  O  O17  1  0.58165600  0.00000000  0.32703400  1
  O  O18  1  0.67023600  0.50000000  0.68060700  1
  O  O19  1  0.91834400  0.50000000  0.67296600  1
  O  O20  1  0.32976400  0.50000000  0.31939300  1
  O  O21  1  0.08165600  0.50000000  0.32703400  1
  O  O22  1  0.17023600  0.00000000  0.68060700  1
  O  O23  1  0.41834400  0.00000000  0.67296600  1
  F  F24  1  0.70196050  0.75032350  0.19260700  1
  F  F25  1  0.95079350  0.74960650  0.19521100  1
  F  F26  1  0.70196050  0.24967650  0.19260700  1
  F  F27  1  0.95079350  0.25039350  0.19521100  1
  F  F28  1  0.57526000  0.50000000  0.29876700  1
  F  F29  1  0.81954100  0.50000000  0.28288000  1
  F  F30  1  0.92474000  0.00000000  0.70123300  1
  F  F31  1  0.68045900  0.00000000  0.71712000  1
  F  F32  1  0.79803950  0.25032350  0.80739300  1
  F  F33  1  0.79803950  0.74967650  0.80739300  1
  F  F34  1  0.54920650  0.75039350  0.80478900  1
  F  F35  1  0.54920650  0.24960650  0.80478900  1
  F  F36  1  0.20196050  0.25032350  0.19260700  1
  F  F37  1  0.45079350  0.24960650  0.19521100  1
  F  F38  1  0.20196050  0.74967650  0.19260700  1
  F  F39  1  0.45079350  0.75039350  0.19521100  1
  F  F40  1  0.07526000  0.00000000  0.29876700  1
  F  F41  1  0.31954100  0.00000000  0.28288000  1
  F  F42  1  0.42474000  0.50000000  0.70123300  1
  F  F43  1  0.18045900  0.50000000  0.71712000  1
  F  F44  1  0.29803950  0.75032350  0.80739300  1
  F  F45  1  0.29803950  0.24967650  0.80739300  1
  F  F46  1  0.04920650  0.25039350  0.80478900  1
  F  F47  1  0.04920650  0.74960650  0.80478900  1
