# generated using pymatgen
data_Co6OF11
_symmetry_space_group_name_H-M   'P 1'
_cell_length_a   9.25217000
_cell_length_b   6.65552000
_cell_length_c   7.46449093
_cell_angle_alpha   90.00000000
_cell_angle_beta   111.32204374
_cell_angle_gamma   90.00000000
_symmetry_Int_Tables_number   1
_chemical_formula_structural   Co6OF11
_chemical_formula_sum   'Co12 O2 F22'
_cell_volume   428.18615018
_cell_formula_units_Z   2
loop_
 _symmetry_equiv_pos_site_id
 _symmetry_equiv_pos_as_xyz
  1  'x, y, z'
loop_
 _atom_site_type_symbol
 _atom_site_label
 _atom_site_symmetry_multiplicity
 _atom_site_fract_x
 _atom_site_fract_y
 _atom_site_fract_z
 _atom_site_occupancy
  Co  Co0  1  0.84129800  0.49010700  0.84218900  1
  Co  Co1  1  0.83207250  0.49616750  0.33370500  1
  Co  Co2  1  0.16792750  0.49616750  0.66629500  1
  Co  Co3  1  0.15870200  0.49010700  0.15781100  1
  Co  Co4  1  0.00000000  0.99772100  0.50000000  1
  Co  Co5  1  0.00000000  0.02186500  0.00000000  1
  Co  Co6  1  0.34129800  0.99010700  0.84218900  1
  Co  Co7  1  0.33207250  0.99616750  0.33370500  1
  Co  Co8  1  0.66792750  0.99616750  0.66629500  1
  Co  Co9  1  0.65870200  0.99010700  0.15781100  1
  Co  Co10  1  0.50000000  0.49772100  0.50000000  1
  Co  Co11  1  0.50000000  0.52186500  0.00000000  1
  O  O12  1  0.00000000  0.31299700  0.00000000  1
  O  O13  1  0.50000000  0.81299700  0.00000000  1
  F  F14  1  0.82782350  0.19025650  0.32896400  1
  F  F15  1  0.17217650  0.19025650  0.67103600  1
  F  F16  1  0.93521500  0.50037800  0.63059400  1
  F  F17  1  0.60061900  0.49788000  0.29961400  1
  F  F18  1  0.26950550  0.50129850  0.96474500  1
  F  F19  1  0.06478500  0.50037800  0.36940600  1
  F  F20  1  0.73049450  0.50129850  0.03525500  1
  F  F21  1  0.39938100  0.49788000  0.70038600  1
  F  F22  1  0.82916700  0.80262700  0.33047500  1
  F  F23  1  0.17083300  0.80262700  0.66952500  1
  F  F24  1  0.00000000  0.70998500  0.00000000  1
  F  F25  1  0.32782350  0.69025650  0.32896400  1
  F  F26  1  0.67217650  0.69025650  0.67103600  1
  F  F27  1  0.43521500  0.00037800  0.63059400  1
  F  F28  1  0.10061900  0.99788000  0.29961400  1
  F  F29  1  0.76950550  0.00129850  0.96474500  1
  F  F30  1  0.56478500  0.00037800  0.36940600  1
  F  F31  1  0.23049450  0.00129850  0.03525500  1
  F  F32  1  0.89938100  0.99788000  0.70038600  1
  F  F33  1  0.32916700  0.30262700  0.33047500  1
  F  F34  1  0.67083300  0.30262700  0.66952500  1
  F  F35  1  0.50000000  0.20998500  0.00000000  1
