# generated using pymatgen
data_CrCu(PO4)2
_symmetry_space_group_name_H-M   'P 1'
_cell_length_a   4.95269319
_cell_length_b   5.92725920
_cell_length_c   10.10456619
_cell_angle_alpha   90.00000000
_cell_angle_beta   95.55016170
_cell_angle_gamma   90.00000000
_symmetry_Int_Tables_number   1
_chemical_formula_structural   CrCu(PO4)2
_chemical_formula_sum   'Cr2 Cu2 P4 O16'
_cell_volume   295.23797391
_cell_formula_units_Z   2
loop_
 _symmetry_equiv_pos_site_id
 _symmetry_equiv_pos_as_xyz
  1  'x, y, z'
loop_
 _atom_site_type_symbol
 _atom_site_label
 _atom_site_symmetry_multiplicity
 _atom_site_fract_x
 _atom_site_fract_y
 _atom_site_fract_z
 _atom_site_occupancy
  Cr  Cr0  1  0.45791350  0.75000000  0.71189900  1
  Cr  Cr1  1  0.54208650  0.25000000  0.28810100  1
  Cu  Cu2  1  0.85391550  0.25000000  0.80448700  1
  Cu  Cu3  1  0.14608450  0.75000000  0.19551300  1
  P  P4  1  0.38928850  0.25000000  0.59762800  1
  P  P5  1  0.94520950  0.75000000  0.89295600  1
  P  P6  1  0.05479050  0.25000000  0.10704400  1
  P  P7  1  0.61071150  0.75000000  0.40237200  1
  O  O8  1  0.65908250  0.75000000  0.55425500  1
  O  O9  1  0.70559850  0.25000000  0.63110100  1
  O  O10  1  0.26801850  0.03695500  0.65950800  1
  O  O11  1  0.26801850  0.46304500  0.65950800  1
  O  O12  1  0.76394750  0.94350700  0.82068700  1
  O  O13  1  0.76394750  0.55649300  0.82068700  1
  O  O14  1  0.24113650  0.75000000  0.86948400  1
  O  O15  1  0.09595550  0.25000000  0.95801400  1
  O  O16  1  0.90404450  0.75000000  0.04198600  1
  O  O17  1  0.75886350  0.25000000  0.13051600  1
  O  O18  1  0.23605250  0.05649300  0.17931300  1
  O  O19  1  0.23605250  0.44350700  0.17931300  1
  O  O20  1  0.73198150  0.53695500  0.34049200  1
  O  O21  1  0.73198150  0.96304500  0.34049200  1
  O  O22  1  0.29440150  0.75000000  0.36889900  1
  O  O23  1  0.34091750  0.25000000  0.44574500  1
