# generated using pymatgen
data_Dy5P12Ru19
_symmetry_space_group_name_H-M   'P 1'
_cell_length_a   12.53314615
_cell_length_b   12.53314615
_cell_length_c   3.98472700
_cell_angle_alpha   90.00000000
_cell_angle_beta   90.00000000
_cell_angle_gamma   120.00000000
_symmetry_Int_Tables_number   1
_chemical_formula_structural   Dy5P12Ru19
_chemical_formula_sum   'Dy5 P12 Ru19'
_cell_volume   542.06256075
_cell_formula_units_Z   1
loop_
 _symmetry_equiv_pos_site_id
 _symmetry_equiv_pos_as_xyz
  1  'x, y, z'
loop_
 _atom_site_type_symbol
 _atom_site_label
 _atom_site_symmetry_multiplicity
 _atom_site_fract_x
 _atom_site_fract_y
 _atom_site_fract_z
 _atom_site_occupancy
  Dy  Dy0  1  0.66666667  0.33333333  0.00000000  1
  Dy  Dy1  1  0.33333333  0.66666667  0.00000000  1
  Dy  Dy2  1  0.81616450  0.00000000  0.50000000  1
  Dy  Dy3  1  0.18383550  0.18383550  0.50000000  1
  Dy  Dy4  1  0.00000000  0.81616450  0.50000000  1
  P  P5  1  0.62677750  0.00000000  0.00000000  1
  P  P6  1  0.37322250  0.37322250  0.00000000  1
  P  P7  1  0.00000000  0.62677750  0.00000000  1
  P  P8  1  0.69423067  0.52276633  0.50000000  1
  P  P9  1  0.82853567  0.30576933  0.50000000  1
  P  P10  1  0.30576933  0.82853567  0.50000000  1
  P  P11  1  0.52276633  0.69423067  0.50000000  1
  P  P12  1  0.18454150  0.00000000  0.00000000  1
  P  P13  1  0.81545850  0.81545850  0.00000000  1
  P  P14  1  0.00000000  0.18454150  0.00000000  1
  P  P15  1  0.47723367  0.17146433  0.50000000  1
  P  P16  1  0.17146433  0.47723367  0.50000000  1
  Ru  Ru17  1  0.62321267  0.80831233  0.00000000  1
  Ru  Ru18  1  0.18509967  0.37678733  0.00000000  1
  Ru  Ru19  1  0.37678733  0.18509967  0.00000000  1
  Ru  Ru20  1  0.19168767  0.81490033  0.00000000  1
  Ru  Ru21  1  0.80831233  0.62321267  0.00000000  1
  Ru  Ru22  1  0.87386667  0.50756733  0.50000000  1
  Ru  Ru23  1  0.49243267  0.36629933  0.50000000  1
  Ru  Ru24  1  0.63370067  0.12613333  0.50000000  1
  Ru  Ru25  1  0.12613333  0.63370067  0.50000000  1
  Ru  Ru26  1  0.36629933  0.49243267  0.50000000  1
  Ru  Ru27  1  0.50756733  0.87386667  0.50000000  1
  Ru  Ru28  1  0.00000000  0.00000000  0.00000000  1
  Ru  Ru29  1  0.71737000  0.71737000  0.50000000  1
  Ru  Ru30  1  0.00000000  0.28263000  0.50000000  1
  Ru  Ru31  1  0.44501050  0.00000000  0.00000000  1
  Ru  Ru32  1  0.55498950  0.55498950  0.00000000  1
  Ru  Ru33  1  0.00000000  0.44501050  0.00000000  1
  Ru  Ru34  1  0.81490033  0.19168767  0.00000000  1
  Ru  Ru35  1  0.28263000  0.00000000  0.50000000  1
