# generated using pymatgen
data_Li3VO3F2
_symmetry_space_group_name_H-M   'P 1'
_cell_length_a   9.07328600
_cell_length_b   5.74879400
_cell_length_c   8.06860398
_cell_angle_alpha   90.00000000
_cell_angle_beta   97.45957645
_cell_angle_gamma   90.00000000
_symmetry_Int_Tables_number   1
_chemical_formula_structural   Li3VO3F2
_chemical_formula_sum   'Li12 V4 O12 F8'
_cell_volume   417.30015180
_cell_formula_units_Z   4
loop_
 _symmetry_equiv_pos_site_id
 _symmetry_equiv_pos_as_xyz
  1  'x, y, z'
loop_
 _atom_site_type_symbol
 _atom_site_label
 _atom_site_symmetry_multiplicity
 _atom_site_fract_x
 _atom_site_fract_y
 _atom_site_fract_z
 _atom_site_occupancy
  Li  Li0  1  0.59156750  0.83686450  0.43594600  1
  Li  Li1  1  0.39422150  0.82169450  0.06777800  1
  Li  Li2  1  0.59156750  0.16313550  0.93594600  1
  Li  Li3  1  0.39422150  0.17830550  0.56777800  1
  Li  Li4  1  0.20259550  0.82568550  0.63114600  1
  Li  Li5  1  0.20259550  0.17431450  0.13114600  1
  Li  Li6  1  0.09156750  0.33686450  0.43594600  1
  Li  Li7  1  0.89422150  0.32169450  0.06777800  1
  Li  Li8  1  0.09156750  0.66313550  0.93594600  1
  Li  Li9  1  0.89422150  0.67830550  0.56777800  1
  Li  Li10  1  0.70259550  0.32568550  0.63114600  1
  Li  Li11  1  0.70259550  0.67431450  0.13114600  1
  V  V12  1  0.50144900  0.67040700  0.75387100  1
  V  V13  1  0.50144900  0.32959300  0.25387100  1
  V  V14  1  0.00144900  0.17040700  0.75387100  1
  V  V15  1  0.00144900  0.82959300  0.25387100  1
  O  O16  1  0.50838100  0.62936200  0.24671600  1
  O  O17  1  0.58575200  0.81356900  0.92832100  1
  O  O18  1  0.58575200  0.18643100  0.42832100  1
  O  O19  1  0.41896250  0.83278050  0.58730900  1
  O  O20  1  0.41896250  0.16721950  0.08730900  1
  O  O21  1  0.50838100  0.37063800  0.74671600  1
  O  O22  1  0.00838100  0.12936200  0.24671600  1
  O  O23  1  0.08575200  0.31356900  0.92832100  1
  O  O24  1  0.08575200  0.68643100  0.42832100  1
  O  O25  1  0.91896250  0.33278050  0.58730900  1
  O  O26  1  0.91896250  0.66721950  0.08730900  1
  O  O27  1  0.00838100  0.87063800  0.74671600  1
  F  F28  1  0.80747550  0.81597650  0.34666900  1
  F  F29  1  0.80747550  0.18402350  0.84666900  1
  F  F30  1  0.18790050  0.83064950  0.13552300  1
  F  F31  1  0.18790050  0.16935050  0.63552300  1
  F  F32  1  0.30747550  0.31597650  0.34666900  1
  F  F33  1  0.30747550  0.68402350  0.84666900  1
  F  F34  1  0.68790050  0.33064950  0.13552300  1
  F  F35  1  0.68790050  0.66935050  0.63552300  1
