# generated using pymatgen
data_LiNbVO4
_symmetry_space_group_name_H-M   'P 1'
_cell_length_a   6.07213407
_cell_length_b   6.14088386
_cell_length_c   8.76326610
_cell_angle_alpha   90.00000000
_cell_angle_beta   90.00000000
_cell_angle_gamma   90.00000000
_symmetry_Int_Tables_number   1
_chemical_formula_structural   LiNbVO4
_chemical_formula_sum   'Li4 Nb4 V4 O16'
_cell_volume   326.76703344
_cell_formula_units_Z   4
loop_
 _symmetry_equiv_pos_site_id
 _symmetry_equiv_pos_as_xyz
  1  'x, y, z'
loop_
 _atom_site_type_symbol
 _atom_site_label
 _atom_site_symmetry_multiplicity
 _atom_site_fract_x
 _atom_site_fract_y
 _atom_site_fract_z
 _atom_site_occupancy
  Li  Li0  1  0.00000000  0.25000000  0.37833325  1
  Li  Li1  1  0.00000000  0.75000000  0.62166675  1
  Li  Li2  1  0.50000000  0.75000000  0.87833325  1
  Li  Li3  1  0.50000000  0.25000000  0.12166675  1
  Nb  Nb4  1  0.75000000  0.75000000  0.25000000  1
  Nb  Nb5  1  0.25000000  0.75000000  0.25000000  1
  Nb  Nb6  1  0.25000000  0.25000000  0.75000000  1
  Nb  Nb7  1  0.75000000  0.25000000  0.75000000  1
  V  V8  1  0.50000000  0.00000000  0.50000000  1
  V  V9  1  0.50000000  0.50000000  0.50000000  1
  V  V10  1  0.00000000  0.50000000  0.00000000  1
  V  V11  1  0.00000000  0.00000000  0.00000000  1
  O  O12  1  0.26249675  0.25000000  0.52138750  1
  O  O13  1  0.73750325  0.25000000  0.52138750  1
  O  O14  1  0.26249675  0.75000000  0.47861250  1
  O  O15  1  0.73750325  0.75000000  0.47861250  1
  O  O16  1  0.50000000  0.01492550  0.73958625  1
  O  O17  1  0.50000000  0.48507450  0.73958625  1
  O  O18  1  0.50000000  0.98507450  0.26041375  1
  O  O19  1  0.50000000  0.51492550  0.26041375  1
  O  O20  1  0.76249675  0.75000000  0.02138750  1
  O  O21  1  0.23750325  0.75000000  0.02138750  1
  O  O22  1  0.76249675  0.25000000  0.97861250  1
  O  O23  1  0.23750325  0.25000000  0.97861250  1
  O  O24  1  0.00000000  0.51492550  0.23958625  1
  O  O25  1  0.00000000  0.98507450  0.23958625  1
  O  O26  1  0.00000000  0.48507450  0.76041375  1
  O  O27  1  0.00000000  0.01492550  0.76041375  1
