# generated using pymatgen
data_Li2V3CuO8
_symmetry_space_group_name_H-M   'P 1'
_cell_length_a   5.91316146
_cell_length_b   5.91316146
_cell_length_c   14.72393908
_cell_angle_alpha   90.00000000
_cell_angle_beta   90.00000000
_cell_angle_gamma   120.00000000
_symmetry_Int_Tables_number   1
_chemical_formula_structural   Li2V3CuO8
_chemical_formula_sum   'Li6 V9 Cu3 O24'
_cell_volume   445.85548995
_cell_formula_units_Z   3
loop_
 _symmetry_equiv_pos_site_id
 _symmetry_equiv_pos_as_xyz
  1  'x, y, z'
loop_
 _atom_site_type_symbol
 _atom_site_label
 _atom_site_symmetry_multiplicity
 _atom_site_fract_x
 _atom_site_fract_y
 _atom_site_fract_z
 _atom_site_occupancy
  Li  Li0  1  0.66666667  0.33333333  0.20914433  1
  Li  Li1  1  0.00000000  0.00000000  0.12418900  1
  Li  Li2  1  0.33333333  0.66666667  0.54247767  1
  Li  Li3  1  0.66666667  0.33333333  0.45752233  1
  Li  Li4  1  0.00000000  0.00000000  0.87581100  1
  Li  Li5  1  0.33333333  0.66666667  0.79085567  1
  V  V6  1  0.50000000  0.50000000  0.00000000  1
  V  V7  1  0.50000000  0.00000000  0.00000000  1
  V  V8  1  0.00000000  0.50000000  0.00000000  1
  V  V9  1  0.16666667  0.83333333  0.33333333  1
  V  V10  1  0.16666667  0.33333333  0.33333333  1
  V  V11  1  0.66666667  0.83333333  0.33333333  1
  V  V12  1  0.83333333  0.16666667  0.66666667  1
  V  V13  1  0.83333333  0.66666667  0.66666667  1
  V  V14  1  0.33333333  0.16666667  0.66666667  1
  Cu  Cu15  1  0.33333333  0.66666667  0.16666667  1
  Cu  Cu16  1  1.00000000  1.00000000  0.50000000  1
  Cu  Cu17  1  0.66666667  0.33333333  0.83333333  1
  O  O18  1  0.66666667  0.33333333  0.07274433  1
  O  O19  1  0.02572867  0.51286433  0.26170933  1
  O  O20  1  0.48713567  0.97427133  0.26170933  1
  O  O21  1  0.48713567  0.51286433  0.26170933  1
  O  O22  1  0.17953100  0.82046900  0.07162400  1
  O  O23  1  0.17953100  0.35906200  0.07162400  1
  O  O24  1  0.64093800  0.82046900  0.07162400  1
  O  O25  1  0.00000000  0.00000000  0.26058900  1
  O  O26  1  0.33333333  0.66666667  0.40607767  1
  O  O27  1  0.69239533  0.84619767  0.59504267  1
  O  O28  1  0.15380233  0.30760467  0.59504267  1
  O  O29  1  0.15380233  0.84619767  0.59504267  1
  O  O30  1  0.84619767  0.15380233  0.40495733  1
  O  O31  1  0.84619767  0.69239533  0.40495733  1
  O  O32  1  0.30760467  0.15380233  0.40495733  1
  O  O33  1  0.66666667  0.33333333  0.59392233  1
  O  O34  1  0.00000000  0.00000000  0.73941100  1
  O  O35  1  0.35906200  0.17953100  0.92837600  1
  O  O36  1  0.82046900  0.64093800  0.92837600  1
  O  O37  1  0.82046900  0.17953100  0.92837600  1
  O  O38  1  0.51286433  0.48713567  0.73829067  1
  O  O39  1  0.51286433  0.02572867  0.73829067  1
  O  O40  1  0.97427133  0.48713567  0.73829067  1
  O  O41  1  0.33333333  0.66666667  0.92725567  1
