# generated using pymatgen
data_Pr2CdCu2
_symmetry_space_group_name_H-M   'P 1'
_cell_length_a   8.53009400
_cell_length_b   7.44300000
_cell_length_c   7.68354807
_cell_angle_alpha   90.00000000
_cell_angle_beta   106.30016199
_cell_angle_gamma   90.00000000
_symmetry_Int_Tables_number   1
_chemical_formula_structural   Pr2CdCu2
_chemical_formula_sum   'Pr8 Cd4 Cu8'
_cell_volume   468.21619322
_cell_formula_units_Z   4
loop_
 _symmetry_equiv_pos_site_id
 _symmetry_equiv_pos_as_xyz
  1  'x, y, z'
loop_
 _atom_site_type_symbol
 _atom_site_label
 _atom_site_symmetry_multiplicity
 _atom_site_fract_x
 _atom_site_fract_y
 _atom_site_fract_z
 _atom_site_occupancy
  Pr  Pr0  1  0.83846100  0.50000000  0.77153000  1
  Pr  Pr1  1  0.16153900  0.50000000  0.22847000  1
  Pr  Pr2  1  0.29048400  0.50000000  0.75455200  1
  Pr  Pr3  1  0.70951600  0.50000000  0.24544800  1
  Pr  Pr4  1  0.33846100  0.00000000  0.77153000  1
  Pr  Pr5  1  0.66153900  0.00000000  0.22847000  1
  Pr  Pr6  1  0.79048400  0.00000000  0.75455200  1
  Pr  Pr7  1  0.20951600  0.00000000  0.24544800  1
  Cd  Cd8  1  0.00000000  0.78587400  0.50000000  1
  Cd  Cd9  1  0.00000000  0.21412600  0.50000000  1
  Cd  Cd10  1  0.50000000  0.28587400  0.50000000  1
  Cd  Cd11  1  0.50000000  0.71412600  0.50000000  1
  Cu  Cu12  1  0.89847400  0.78534400  0.09419900  1
  Cu  Cu13  1  0.10152600  0.78534400  0.90580100  1
  Cu  Cu14  1  0.10152600  0.21465600  0.90580100  1
  Cu  Cu15  1  0.89847400  0.21465600  0.09419900  1
  Cu  Cu16  1  0.39847400  0.28534400  0.09419900  1
  Cu  Cu17  1  0.60152600  0.28534400  0.90580100  1
  Cu  Cu18  1  0.60152600  0.71465600  0.90580100  1
  Cu  Cu19  1  0.39847400  0.71465600  0.09419900  1
