# generated using pymatgen
data_Tl2CoP4(HO2)8
_symmetry_space_group_name_H-M   'P 1'
_cell_length_a   7.10704445
_cell_length_b   7.42724504
_cell_length_c   7.80622563
_cell_angle_alpha   98.05647900
_cell_angle_beta   108.20897257
_cell_angle_gamma   88.60125415
_symmetry_Int_Tables_number   1
_chemical_formula_structural   Tl2CoP4(HO2)8
_chemical_formula_sum   'Tl2 Co1 P4 H8 O16'
_cell_volume   387.47749937
_cell_formula_units_Z   1
loop_
 _symmetry_equiv_pos_site_id
 _symmetry_equiv_pos_as_xyz
  1  'x, y, z'
loop_
 _atom_site_type_symbol
 _atom_site_label
 _atom_site_symmetry_multiplicity
 _atom_site_fract_x
 _atom_site_fract_y
 _atom_site_fract_z
 _atom_site_occupancy
  Tl  Tl0  1  0.90430200  0.29402450  0.79568350  1
  Tl  Tl1  1  0.09569800  0.70597550  0.20431650  1
  Co  Co2  1  0.50000000  0.50000000  0.00000000  1
  P  P3  1  0.64617350  0.74407950  0.73172000  1
  P  P4  1  0.35382650  0.25592050  0.26828000  1
  P  P5  1  0.23799850  0.79142200  0.74246550  1
  P  P6  1  0.76200150  0.20857800  0.25753450  1
  H  H7  1  0.73362050  0.97386200  0.96009450  1
  H  H8  1  0.26637950  0.02613800  0.03990550  1
  H  H9  1  0.38523950  0.29737300  0.66084150  1
  H  H10  1  0.61476050  0.70262700  0.33915850  1
  H  H11  1  0.91693050  0.73783900  0.57644650  1
  H  H12  1  0.08306950  0.26216100  0.42355350  1
  H  H13  1  0.37964450  0.16601400  0.80600450  1
  H  H14  1  0.62035550  0.83398600  0.19399550  1
  O  O15  1  0.44055200  0.27972050  0.79085550  1
  O  O16  1  0.55944800  0.72027950  0.20914450  1
  O  O17  1  0.68300300  0.61221350  0.87059250  1
  O  O18  1  0.31699700  0.38778650  0.12940750  1
  O  O19  1  0.73714250  0.93795450  0.82676700  1
  O  O20  1  0.26285750  0.06204550  0.17323300  1
  O  O21  1  0.71882250  0.68746850  0.56946100  1
  O  O22  1  0.28117750  0.31253150  0.43053900  1
  O  O23  1  0.40972250  0.76857900  0.64349650  1
  O  O24  1  0.59027750  0.23142100  0.35650350  1
  O  O25  1  0.24585150  0.63928700  0.85511350  1
  O  O26  1  0.75414850  0.36071300  0.14488650  1
  O  O27  1  0.05419050  0.77338200  0.56525950  1
  O  O28  1  0.94580950  0.22661800  0.43474050  1
  O  O29  1  0.26028650  0.98356700  0.84720150  1
  O  O30  1  0.73971350  0.01643300  0.15279850  1
