# generated using pymatgen
data_LiFe2C2O7
_symmetry_space_group_name_H-M   'P 1'
_cell_length_a   14.36243600
_cell_length_b   8.44419000
_cell_length_c   8.06329287
_cell_angle_alpha   90.00000000
_cell_angle_beta   90.61920750
_cell_angle_gamma   90.00000000
_symmetry_Int_Tables_number   1
_chemical_formula_structural   LiFe2C2O7
_chemical_formula_sum   'Li6 Fe12 C12 O42'
_cell_volume   977.85210561
_cell_formula_units_Z   6
loop_
 _symmetry_equiv_pos_site_id
 _symmetry_equiv_pos_as_xyz
  1  'x, y, z'
loop_
 _atom_site_type_symbol
 _atom_site_label
 _atom_site_symmetry_multiplicity
 _atom_site_fract_x
 _atom_site_fract_y
 _atom_site_fract_z
 _atom_site_occupancy
  Li  Li0  1  0.50000000  0.77693000  0.50000000  1
  Li  Li1  1  0.17962550  0.82377550  0.49342300  1
  Li  Li2  1  0.82037450  0.82377550  0.50657700  1
  Li  Li3  1  0.00000000  0.27693000  0.50000000  1
  Li  Li4  1  0.67962550  0.32377550  0.49342300  1
  Li  Li5  1  0.32037450  0.32377550  0.50657700  1
  Fe  Fe6  1  0.33281300  0.99489700  0.80612700  1
  Fe  Fe7  1  0.66718700  0.99489700  0.19387300  1
  Fe  Fe8  1  0.34045150  0.99977650  0.26113200  1
  Fe  Fe9  1  0.65954850  0.99977650  0.73886800  1
  Fe  Fe10  1  0.49831050  0.50385650  0.27272600  1
  Fe  Fe11  1  0.50168950  0.50385650  0.72727400  1
  Fe  Fe12  1  0.83281300  0.49489700  0.80612700  1
  Fe  Fe13  1  0.16718700  0.49489700  0.19387300  1
  Fe  Fe14  1  0.84045150  0.49977650  0.26113200  1
  Fe  Fe15  1  0.15954850  0.49977650  0.73886800  1
  Fe  Fe16  1  0.99831050  0.00385650  0.27272600  1
  Fe  Fe17  1  0.00168950  0.00385650  0.72727400  1
  C  C18  1  0.82779950  0.16827650  0.29624300  1
  C  C19  1  0.17220050  0.16827650  0.70375700  1
  C  C20  1  0.17262100  0.16882000  0.29582500  1
  C  C21  1  0.82737900  0.16882000  0.70417500  1
  C  C22  1  0.50140800  0.16580100  0.29569300  1
  C  C23  1  0.49859200  0.16580100  0.70430700  1
  C  C24  1  0.32779950  0.66827650  0.29624300  1
  C  C25  1  0.67220050  0.66827650  0.70375700  1
  C  C26  1  0.67262100  0.66882000  0.29582500  1
  C  C27  1  0.32737900  0.66882000  0.70417500  1
  C  C28  1  0.00140800  0.66580100  0.29569300  1
  C  C29  1  0.99859200  0.66580100  0.70430700  1
  O  O30  1  0.50000000  0.53236300  0.50000000  1
  O  O31  1  0.40748700  0.67297900  0.77710800  1
  O  O32  1  0.59251300  0.67297900  0.22289200  1
  O  O33  1  0.37927650  0.78284050  0.35256000  1
  O  O34  1  0.62072350  0.78284050  0.64744000  1
  O  O35  1  0.28084200  0.80168300  0.68778900  1
  O  O36  1  0.71915800  0.80168300  0.31221100  1
  O  O37  1  0.33091700  0.99269400  0.02357400  1
  O  O38  1  0.66908300  0.99269400  0.97642600  1
  O  O39  1  0.79174500  0.03918200  0.64617000  1
  O  O40  1  0.20825500  0.03918200  0.35383000  1
  O  O41  1  0.46021750  0.02623250  0.70563900  1
  O  O42  1  0.53978250  0.02623250  0.29436100  1
  O  O43  1  0.13589250  0.04615650  0.77391200  1
  O  O44  1  0.86410750  0.04615650  0.22608800  1
  O  O45  1  0.26243100  0.17509200  0.69031500  1
  O  O46  1  0.73756900  0.17509200  0.30968500  1
  O  O47  1  0.41781000  0.18269600  0.35425300  1
  O  O48  1  0.58219000  0.18269600  0.64574700  1
  O  O49  1  0.54613900  0.28516300  0.23698300  1
  O  O50  1  0.45386100  0.28516300  0.76301700  1
  O  O51  1  0.00000000  0.03236300  0.50000000  1
  O  O52  1  0.90748700  0.17297900  0.77710800  1
  O  O53  1  0.09251300  0.17297900  0.22289200  1
  O  O54  1  0.87927650  0.28284050  0.35256000  1
  O  O55  1  0.12072350  0.28284050  0.64744000  1
  O  O56  1  0.78084200  0.30168300  0.68778900  1
  O  O57  1  0.21915800  0.30168300  0.31221100  1
  O  O58  1  0.83091700  0.49269400  0.02357400  1
  O  O59  1  0.16908300  0.49269400  0.97642600  1
  O  O60  1  0.29174500  0.53918200  0.64617000  1
  O  O61  1  0.70825500  0.53918200  0.35383000  1
  O  O62  1  0.96021750  0.52623250  0.70563900  1
  O  O63  1  0.03978250  0.52623250  0.29436100  1
  O  O64  1  0.63589250  0.54615650  0.77391200  1
  O  O65  1  0.36410750  0.54615650  0.22608800  1
  O  O66  1  0.76243100  0.67509200  0.69031500  1
  O  O67  1  0.23756900  0.67509200  0.30968500  1
  O  O68  1  0.91781000  0.68269600  0.35425300  1
  O  O69  1  0.08219000  0.68269600  0.64574700  1
  O  O70  1  0.04613900  0.78516300  0.23698300  1
  O  O71  1  0.95386100  0.78516300  0.76301700  1
