# generated using pymatgen
data_Co2O3F
_symmetry_space_group_name_H-M   'P 1'
_cell_length_a   8.76340200
_cell_length_b   6.29673400
_cell_length_c   8.67499549
_cell_angle_alpha   90.00000000
_cell_angle_beta   94.08466436
_cell_angle_gamma   90.00000000
_symmetry_Int_Tables_number   1
_chemical_formula_structural   Co2O3F
_chemical_formula_sum   'Co16 O24 F8'
_cell_volume   477.47735320
_cell_formula_units_Z   8
loop_
 _symmetry_equiv_pos_site_id
 _symmetry_equiv_pos_as_xyz
  1  'x, y, z'
loop_
 _atom_site_type_symbol
 _atom_site_label
 _atom_site_symmetry_multiplicity
 _atom_site_fract_x
 _atom_site_fract_y
 _atom_site_fract_z
 _atom_site_occupancy
  Co  Co0  1  0.86587300  0.00000000  0.35965900  1
  Co  Co1  1  0.13412700  0.00000000  0.64034100  1
  Co  Co2  1  0.24043600  0.00000000  0.25839100  1
  Co  Co3  1  0.50000000  0.00000000  0.50000000  1
  Co  Co4  1  0.00000000  0.00000000  0.00000000  1
  Co  Co5  1  0.60360200  0.00000000  0.13612300  1
  Co  Co6  1  0.39639800  0.00000000  0.86387700  1
  Co  Co7  1  0.75956400  0.00000000  0.74160900  1
  Co  Co8  1  0.36587300  0.50000000  0.35965900  1
  Co  Co9  1  0.63412700  0.50000000  0.64034100  1
  Co  Co10  1  0.74043600  0.50000000  0.25839100  1
  Co  Co11  1  0.00000000  0.50000000  0.50000000  1
  Co  Co12  1  0.50000000  0.50000000  0.00000000  1
  Co  Co13  1  0.10360200  0.50000000  0.13612300  1
  Co  Co14  1  0.89639800  0.50000000  0.86387700  1
  Co  Co15  1  0.25956400  0.50000000  0.74160900  1
  O  O16  1  0.73619550  0.19942250  0.24606100  1
  O  O17  1  0.54185200  0.00000000  0.71570900  1
  O  O18  1  0.27621100  0.00000000  0.47392000  1
  O  O19  1  0.02470400  0.00000000  0.22181600  1
  O  O20  1  0.45814800  0.00000000  0.28429100  1
  O  O21  1  0.72378900  0.00000000  0.52608000  1
  O  O22  1  0.97529600  0.00000000  0.77818400  1
  O  O23  1  0.73619550  0.80057750  0.24606100  1
  O  O24  1  0.26380450  0.80057750  0.75393900  1
  O  O25  1  0.50000000  0.80509500  0.00000000  1
  O  O26  1  0.50000000  0.19490500  0.00000000  1
  O  O27  1  0.26380450  0.19942250  0.75393900  1
  O  O28  1  0.23619550  0.69942250  0.24606100  1
  O  O29  1  0.04185200  0.50000000  0.71570900  1
  O  O30  1  0.77621100  0.50000000  0.47392000  1
  O  O31  1  0.52470400  0.50000000  0.22181600  1
  O  O32  1  0.95814800  0.50000000  0.28429100  1
  O  O33  1  0.22378900  0.50000000  0.52608000  1
  O  O34  1  0.47529600  0.50000000  0.77818400  1
  O  O35  1  0.23619550  0.30057750  0.24606100  1
  O  O36  1  0.76380450  0.30057750  0.75393900  1
  O  O37  1  0.00000000  0.30509500  0.00000000  1
  O  O38  1  0.00000000  0.69490500  0.00000000  1
  O  O39  1  0.76380450  0.69942250  0.75393900  1
  F  F40  1  0.50000000  0.31003900  0.50000000  1
  F  F41  1  0.50000000  0.68996100  0.50000000  1
  F  F42  1  0.76880600  0.00000000  0.96777700  1
  F  F43  1  0.23119400  0.00000000  0.03222300  1
  F  F44  1  0.00000000  0.81003900  0.50000000  1
  F  F45  1  0.00000000  0.18996100  0.50000000  1
  F  F46  1  0.26880600  0.50000000  0.96777700  1
  F  F47  1  0.73119400  0.50000000  0.03222300  1
