# generated using pymatgen
data_TaFeO4
_symmetry_space_group_name_H-M   'P 1'
_cell_length_a   6.69828400
_cell_length_b   6.69828400
_cell_length_c   18.45767600
_cell_angle_alpha   90.00000000
_cell_angle_beta   90.00000000
_cell_angle_gamma   90.00000000
_symmetry_Int_Tables_number   1
_chemical_formula_structural   TaFeO4
_chemical_formula_sum   'Ta12 Fe12 O48'
_cell_volume   828.14070681
_cell_formula_units_Z   12
loop_
 _symmetry_equiv_pos_site_id
 _symmetry_equiv_pos_as_xyz
  1  'x, y, z'
loop_
 _atom_site_type_symbol
 _atom_site_label
 _atom_site_symmetry_multiplicity
 _atom_site_fract_x
 _atom_site_fract_y
 _atom_site_fract_z
 _atom_site_occupancy
  Ta  Ta0  1  0.50000000  0.00000000  0.83960400  1
  Ta  Ta1  1  0.00000000  0.00000000  0.91808800  1
  Ta  Ta2  1  0.50000000  0.50000000  0.07735600  1
  Ta  Ta3  1  0.00000000  0.00000000  0.08960400  1
  Ta  Ta4  1  0.00000000  0.50000000  0.82735600  1
  Ta  Ta5  1  0.00000000  0.50000000  0.16808800  1
  Ta  Ta6  1  0.00000000  0.50000000  0.33960400  1
  Ta  Ta7  1  0.50000000  0.50000000  0.41808800  1
  Ta  Ta8  1  0.00000000  0.00000000  0.57735600  1
  Ta  Ta9  1  0.50000000  0.50000000  0.58960400  1
  Ta  Ta10  1  0.50000000  0.00000000  0.32735600  1
  Ta  Ta11  1  0.50000000  0.00000000  0.66808800  1
  Fe  Fe12  1  0.50000000  0.50000000  0.24753900  1
  Fe  Fe13  1  0.50000000  0.00000000  0.00391200  1
  Fe  Fe14  1  0.50000000  0.00000000  0.16419500  1
  Fe  Fe15  1  0.50000000  0.50000000  0.75391200  1
  Fe  Fe16  1  0.50000000  0.50000000  0.91419500  1
  Fe  Fe17  1  0.00000000  0.50000000  0.99753900  1
  Fe  Fe18  1  0.00000000  0.00000000  0.74753900  1
  Fe  Fe19  1  0.00000000  0.50000000  0.50391200  1
  Fe  Fe20  1  0.00000000  0.50000000  0.66419500  1
  Fe  Fe21  1  0.00000000  0.00000000  0.25391200  1
  Fe  Fe22  1  0.00000000  0.00000000  0.41419500  1
  Fe  Fe23  1  0.50000000  0.00000000  0.49753900  1
  O  O24  1  0.19779700  0.00000000  0.83528700  1
  O  O25  1  0.00000000  0.30100000  0.75164300  1
  O  O26  1  0.50000000  0.79927900  0.08343400  1
  O  O27  1  0.50000000  0.20072100  0.08343400  1
  O  O28  1  0.50000000  0.19615750  0.91487350  1
  O  O29  1  0.00000000  0.69779700  0.08528700  1
  O  O30  1  0.00000000  0.69900000  0.75164300  1
  O  O31  1  0.00000000  0.69183700  0.24982500  1
  O  O32  1  0.80816300  0.00000000  0.99982500  1
  O  O33  1  0.30100000  0.50000000  0.00164300  1
  O  O34  1  0.29927900  0.50000000  0.83343400  1
  O  O35  1  0.80384250  0.00000000  0.16487350  1
  O  O36  1  0.80220300  0.00000000  0.83528700  1
  O  O37  1  0.19615750  0.00000000  0.16487350  1
  O  O38  1  0.70072100  0.50000000  0.83343400  1
  O  O39  1  0.69967100  0.50000000  0.16459000  1
  O  O40  1  0.69900000  0.50000000  0.00164300  1
  O  O41  1  0.19183700  0.00000000  0.99982500  1
  O  O42  1  0.00000000  0.30816300  0.24982500  1
  O  O43  1  0.50000000  0.80384250  0.91487350  1
  O  O44  1  0.00000000  0.30032900  0.91459000  1
  O  O45  1  0.00000000  0.30220300  0.08528700  1
  O  O46  1  0.00000000  0.69967100  0.91459000  1
  O  O47  1  0.30032900  0.50000000  0.16459000  1
  O  O48  1  0.69779700  0.50000000  0.33528700  1
  O  O49  1  0.50000000  0.80100000  0.25164300  1
  O  O50  1  0.00000000  0.29927900  0.58343400  1
  O  O51  1  0.00000000  0.70072100  0.58343400  1
  O  O52  1  0.00000000  0.69615750  0.41487350  1
  O  O53  1  0.50000000  0.19779700  0.58528700  1
  O  O54  1  0.50000000  0.19900000  0.25164300  1
  O  O55  1  0.50000000  0.19183700  0.74982500  1
  O  O56  1  0.30816300  0.50000000  0.49982500  1
  O  O57  1  0.80100000  0.00000000  0.50164300  1
  O  O58  1  0.79927900  0.00000000  0.33343400  1
  O  O59  1  0.30384250  0.50000000  0.66487350  1
  O  O60  1  0.30220300  0.50000000  0.33528700  1
  O  O61  1  0.69615750  0.50000000  0.66487350  1
  O  O62  1  0.20072100  0.00000000  0.33343400  1
  O  O63  1  0.19967100  0.00000000  0.66459000  1
  O  O64  1  0.19900000  0.00000000  0.50164300  1
  O  O65  1  0.69183700  0.50000000  0.49982500  1
  O  O66  1  0.50000000  0.80816300  0.74982500  1
  O  O67  1  0.00000000  0.30384250  0.41487350  1
  O  O68  1  0.50000000  0.80032900  0.41459000  1
  O  O69  1  0.50000000  0.80220300  0.58528700  1
  O  O70  1  0.50000000  0.19967100  0.41459000  1
  O  O71  1  0.80032900  0.00000000  0.66459000  1
