# generated using pymatgen
data_Li5Mn6(BO3)6
_symmetry_space_group_name_H-M   'P 1'
_cell_length_a   16.47817200
_cell_length_b   12.75346000
_cell_length_c   8.29394655
_cell_angle_alpha   90.00000000
_cell_angle_beta   119.86493804
_cell_angle_gamma   90.00000000
_symmetry_Int_Tables_number   1
_chemical_formula_structural   Li5Mn6(BO3)6
_chemical_formula_sum   'Li20 Mn24 B24 O72'
_cell_volume   1511.53558470
_cell_formula_units_Z   4
loop_
 _symmetry_equiv_pos_site_id
 _symmetry_equiv_pos_as_xyz
  1  'x, y, z'
loop_
 _atom_site_type_symbol
 _atom_site_label
 _atom_site_symmetry_multiplicity
 _atom_site_fract_x
 _atom_site_fract_y
 _atom_site_fract_z
 _atom_site_occupancy
  Li  Li0  1  0.23442350  0.74743250  0.70219700  1
  Li  Li1  1  0.52497400  0.50000000  0.01780200  1
  Li  Li2  1  0.02440250  0.75069350  0.01607200  1
  Li  Li3  1  0.23442350  0.25256750  0.70219700  1
  Li  Li4  1  0.23549300  0.50000000  0.70250400  1
  Li  Li5  1  0.86594600  0.75028100  0.28026100  1
  Li  Li6  1  0.86594600  0.24971900  0.28026100  1
  Li  Li7  1  0.86632400  0.50000000  0.28716700  1
  Li  Li8  1  0.02567000  0.50000000  0.02373200  1
  Li  Li9  1  0.02440250  0.24930650  0.01607200  1
  Li  Li10  1  0.73442350  0.24743250  0.70219700  1
  Li  Li11  1  0.02497400  0.00000000  0.01780200  1
  Li  Li12  1  0.52440250  0.25069350  0.01607200  1
  Li  Li13  1  0.73442350  0.75256750  0.70219700  1
  Li  Li14  1  0.73549300  0.00000000  0.70250400  1
  Li  Li15  1  0.36594600  0.25028100  0.28026100  1
  Li  Li16  1  0.36594600  0.74971900  0.28026100  1
  Li  Li17  1  0.36632400  0.00000000  0.28716700  1
  Li  Li18  1  0.52567000  0.00000000  0.02373200  1
  Li  Li19  1  0.52440250  0.74930650  0.01607200  1
  Mn  Mn20  1  0.19172100  0.62391700  0.99700800  1
  Mn  Mn21  1  0.69334500  0.62434800  0.98122600  1
  Mn  Mn22  1  0.69334500  0.37565200  0.98122600  1
  Mn  Mn23  1  0.88071500  0.87538500  0.62607300  1
  Mn  Mn24  1  0.05313100  0.87737800  0.37074500  1
  Mn  Mn25  1  0.19172100  0.37608300  0.99700800  1
  Mn  Mn26  1  0.87525900  0.62339700  0.64256000  1
  Mn  Mn27  1  0.87525900  0.37660300  0.64256000  1
  Mn  Mn28  1  0.88071500  0.12461500  0.62607300  1
  Mn  Mn29  1  0.05313100  0.12262200  0.37074500  1
  Mn  Mn30  1  0.05516350  0.62540550  0.37849200  1
  Mn  Mn31  1  0.05516350  0.37459450  0.37849200  1
  Mn  Mn32  1  0.69172100  0.12391700  0.99700800  1
  Mn  Mn33  1  0.19334500  0.12434800  0.98122600  1
  Mn  Mn34  1  0.19334500  0.87565200  0.98122600  1
  Mn  Mn35  1  0.38071500  0.37538500  0.62607300  1
  Mn  Mn36  1  0.55313100  0.37737800  0.37074500  1
  Mn  Mn37  1  0.69172100  0.87608300  0.99700800  1
  Mn  Mn38  1  0.37525900  0.12339700  0.64256000  1
  Mn  Mn39  1  0.37525900  0.87660300  0.64256000  1
  Mn  Mn40  1  0.38071500  0.62461500  0.62607300  1
  Mn  Mn41  1  0.55313100  0.62262200  0.37074500  1
  Mn  Mn42  1  0.55516350  0.12540550  0.37849200  1
  Mn  Mn43  1  0.55516350  0.87459450  0.37849200  1
  B  B44  1  0.54316900  0.50000000  0.66753200  1
  B  B45  1  0.04084600  0.75204300  0.66595700  1
  B  B46  1  0.87420600  0.87058100  0.99014100  1
  B  B47  1  0.87420600  0.12941900  0.99014100  1
  B  B48  1  0.04097100  0.50000000  0.67399300  1
  B  B49  1  0.04084600  0.24795700  0.66595700  1
  B  B50  1  0.20696850  0.75155250  0.33096400  1
  B  B51  1  0.70490300  0.50000000  0.32192600  1
  B  B52  1  0.20715200  0.50000000  0.34025000  1
  B  B53  1  0.87951450  0.62914350  0.00981200  1
  B  B54  1  0.87951450  0.37085650  0.00981200  1
  B  B55  1  0.20696850  0.24844750  0.33096400  1
  B  B56  1  0.04316900  0.00000000  0.66753200  1
  B  B57  1  0.54084600  0.25204300  0.66595700  1
  B  B58  1  0.37420600  0.37058100  0.99014100  1
  B  B59  1  0.37420600  0.62941900  0.99014100  1
  B  B60  1  0.54097100  0.00000000  0.67399300  1
  B  B61  1  0.54084600  0.74795700  0.66595700  1
  B  B62  1  0.70696850  0.25155250  0.33096400  1
  B  B63  1  0.20490300  0.00000000  0.32192600  1
  B  B64  1  0.70715200  0.00000000  0.34025000  1
  B  B65  1  0.37951450  0.12914350  0.00981200  1
  B  B66  1  0.37951450  0.87085650  0.00981200  1
  B  B67  1  0.70696850  0.74844750  0.33096400  1
  O  O68  1  0.63829600  0.50000000  0.78567800  1
  O  O69  1  0.13721250  0.74822850  0.77909400  1
  O  O70  1  0.82467150  0.64184950  0.82124700  1
  O  O71  1  0.82467150  0.35815050  0.82124700  1
  O  O72  1  0.32023500  0.62180100  0.79601600  1
  O  O73  1  0.50611300  0.50000000  0.47689300  1
  O  O74  1  0.00111750  0.75413550  0.47272600  1
  O  O75  1  0.98339400  0.50000000  0.75279200  1
  O  O76  1  0.48168500  0.50000000  0.74020200  1
  O  O77  1  0.15282900  0.75282500  0.41665400  1
  O  O78  1  0.98250000  0.75389400  0.74310700  1
  O  O79  1  0.98250000  0.24610600  0.74310700  1
  O  O80  1  0.64086500  0.50000000  0.38323100  1
  O  O81  1  0.30334300  0.50000000  0.45830300  1
  O  O82  1  0.13721250  0.25177150  0.77909400  1
  O  O83  1  0.13810500  0.50000000  0.78627900  1
  O  O84  1  0.80099400  0.50000000  0.44287800  1
  O  O85  1  0.80436850  0.75163650  0.44064600  1
  O  O86  1  0.80436850  0.24836350  0.44064600  1
  O  O87  1  0.97205850  0.87372250  0.07712900  1
  O  O88  1  0.32023500  0.37819900  0.79601600  1
  O  O89  1  0.00100300  0.50000000  0.48119600  1
  O  O90  1  0.00111750  0.24586450  0.47272600  1
  O  O91  1  0.16585350  0.75327450  0.13900500  1
  O  O92  1  0.67035600  0.50000000  0.13126000  1
  O  O93  1  0.83968000  0.62251600  0.12433600  1
  O  O94  1  0.83968000  0.37748400  0.12433600  1
  O  O95  1  0.33109650  0.64190050  0.09431400  1
  O  O96  1  0.15073100  0.50000000  0.42106800  1
  O  O97  1  0.15282900  0.24717500  0.41665400  1
  O  O98  1  0.97725600  0.62470200  0.09063900  1
  O  O99  1  0.97725600  0.37529800  0.09063900  1
  O  O100  1  0.97205850  0.12627750  0.07712900  1
  O  O101  1  0.16739600  0.50000000  0.14885500  1
  O  O102  1  0.16585350  0.24672550  0.13900500  1
  O  O103  1  0.33109650  0.35809950  0.09431400  1
  O  O104  1  0.13829600  0.00000000  0.78567800  1
  O  O105  1  0.63721250  0.24822850  0.77909400  1
  O  O106  1  0.32467150  0.14184950  0.82124700  1
  O  O107  1  0.32467150  0.85815050  0.82124700  1
  O  O108  1  0.82023500  0.12180100  0.79601600  1
  O  O109  1  0.00611300  0.00000000  0.47689300  1
  O  O110  1  0.50111750  0.25413550  0.47272600  1
  O  O111  1  0.48339400  0.00000000  0.75279200  1
  O  O112  1  0.98168500  0.00000000  0.74020200  1
  O  O113  1  0.65282900  0.25282500  0.41665400  1
  O  O114  1  0.48250000  0.25389400  0.74310700  1
  O  O115  1  0.48250000  0.74610600  0.74310700  1
  O  O116  1  0.14086500  0.00000000  0.38323100  1
  O  O117  1  0.80334300  0.00000000  0.45830300  1
  O  O118  1  0.63721250  0.75177150  0.77909400  1
  O  O119  1  0.63810500  0.00000000  0.78627900  1
  O  O120  1  0.30099400  0.00000000  0.44287800  1
  O  O121  1  0.30436850  0.25163650  0.44064600  1
  O  O122  1  0.30436850  0.74836350  0.44064600  1
  O  O123  1  0.47205850  0.37372250  0.07712900  1
  O  O124  1  0.82023500  0.87819900  0.79601600  1
  O  O125  1  0.50100300  0.00000000  0.48119600  1
  O  O126  1  0.50111750  0.74586450  0.47272600  1
  O  O127  1  0.66585350  0.25327450  0.13900500  1
  O  O128  1  0.17035600  0.00000000  0.13126000  1
  O  O129  1  0.33968000  0.12251600  0.12433600  1
  O  O130  1  0.33968000  0.87748400  0.12433600  1
  O  O131  1  0.83109650  0.14190050  0.09431400  1
  O  O132  1  0.65073100  0.00000000  0.42106800  1
  O  O133  1  0.65282900  0.74717500  0.41665400  1
  O  O134  1  0.47725600  0.12470200  0.09063900  1
  O  O135  1  0.47725600  0.87529800  0.09063900  1
  O  O136  1  0.47205850  0.62627750  0.07712900  1
  O  O137  1  0.66739600  0.00000000  0.14885500  1
  O  O138  1  0.66585350  0.74672550  0.13900500  1
  O  O139  1  0.83109650  0.85809950  0.09431400  1
