# generated using pymatgen
data_Yb3SiO
_symmetry_space_group_name_H-M   'P 1'
_cell_length_a   6.58157600
_cell_length_b   6.58955000
_cell_length_c   9.30770400
_cell_angle_alpha   90.00000000
_cell_angle_beta   90.00000000
_cell_angle_gamma   90.00000000
_symmetry_Int_Tables_number   1
_chemical_formula_structural   Yb3SiO
_chemical_formula_sum   'Yb12 Si4 O4'
_cell_volume   403.67162400
_cell_formula_units_Z   4
loop_
 _symmetry_equiv_pos_site_id
 _symmetry_equiv_pos_as_xyz
  1  'x, y, z'
loop_
 _atom_site_type_symbol
 _atom_site_label
 _atom_site_symmetry_multiplicity
 _atom_site_fract_x
 _atom_site_fract_y
 _atom_site_fract_z
 _atom_site_occupancy
  Yb  Yb0  1  0.50000000  0.98034000  0.75000000  1
  Yb  Yb1  1  0.50000000  0.01966000  0.25000000  1
  Yb  Yb2  1  0.75000000  0.25000000  0.50996900  1
  Yb  Yb3  1  0.75000000  0.75000000  0.49003100  1
  Yb  Yb4  1  0.25000000  0.75000000  0.49003100  1
  Yb  Yb5  1  0.25000000  0.25000000  0.50996900  1
  Yb  Yb6  1  0.00000000  0.48034000  0.25000000  1
  Yb  Yb7  1  0.00000000  0.51966000  0.75000000  1
  Yb  Yb8  1  0.25000000  0.75000000  0.00996900  1
  Yb  Yb9  1  0.25000000  0.25000000  0.99003100  1
  Yb  Yb10  1  0.75000000  0.25000000  0.99003100  1
  Yb  Yb11  1  0.75000000  0.75000000  0.00996900  1
  Si  Si12  1  0.00000000  0.00009600  0.75000000  1
  Si  Si13  1  0.00000000  0.99990400  0.25000000  1
  Si  Si14  1  0.50000000  0.50009600  0.25000000  1
  Si  Si15  1  0.50000000  0.49990400  0.75000000  1
  O  O16  1  0.50000000  0.00000000  0.00000000  1
  O  O17  1  0.50000000  0.00000000  0.50000000  1
  O  O18  1  0.00000000  0.50000000  0.50000000  1
  O  O19  1  0.00000000  0.50000000  0.00000000  1
