# generated using pymatgen
data_Rb2MnSe2
_symmetry_space_group_name_H-M   'P 1'
_cell_length_a   6.70347800
_cell_length_b   7.37592600
_cell_length_c   13.89599400
_cell_angle_alpha   90.00000000
_cell_angle_beta   90.00000000
_cell_angle_gamma   90.00000000
_symmetry_Int_Tables_number   1
_chemical_formula_structural   Rb2MnSe2
_chemical_formula_sum   'Rb8 Mn4 Se8'
_cell_volume   687.07849752
_cell_formula_units_Z   4
loop_
 _symmetry_equiv_pos_site_id
 _symmetry_equiv_pos_as_xyz
  1  'x, y, z'
loop_
 _atom_site_type_symbol
 _atom_site_label
 _atom_site_symmetry_multiplicity
 _atom_site_fract_x
 _atom_site_fract_y
 _atom_site_fract_z
 _atom_site_occupancy
  Rb  Rb0  1  0.00000000  0.16740000  0.35372500  1
  Rb  Rb1  1  0.50000000  0.33260000  0.14627500  1
  Rb  Rb2  1  0.00000000  0.66740000  0.14627500  1
  Rb  Rb3  1  0.50000000  0.83260000  0.35372500  1
  Rb  Rb4  1  0.50000000  0.66740000  0.85372500  1
  Rb  Rb5  1  0.00000000  0.83260000  0.64627500  1
  Rb  Rb6  1  0.50000000  0.16740000  0.64627500  1
  Rb  Rb7  1  0.00000000  0.33260000  0.85372500  1
  Mn  Mn8  1  0.25000000  0.00000000  0.00000000  1
  Mn  Mn9  1  0.75000000  0.00000000  0.00000000  1
  Mn  Mn10  1  0.75000000  0.50000000  0.50000000  1
  Mn  Mn11  1  0.25000000  0.50000000  0.50000000  1
  Se  Se12  1  0.00000000  0.68550700  0.39911500  1
  Se  Se13  1  0.00000000  0.18550700  0.10088500  1
  Se  Se14  1  0.50000000  0.31449300  0.39911500  1
  Se  Se15  1  0.50000000  0.81449300  0.10088500  1
  Se  Se16  1  0.50000000  0.18550700  0.89911500  1
  Se  Se17  1  0.50000000  0.68550700  0.60088500  1
  Se  Se18  1  0.00000000  0.81449300  0.89911500  1
  Se  Se19  1  0.00000000  0.31449300  0.60088500  1
