# generated using pymatgen
data_Li3Mn4(BO3)4
_symmetry_space_group_name_H-M   'P 1'
_cell_length_a   5.26094105
_cell_length_b   6.17463559
_cell_length_c   9.08919863
_cell_angle_alpha   108.04350354
_cell_angle_beta   89.02368057
_cell_angle_gamma   114.94703382
_symmetry_Int_Tables_number   1
_chemical_formula_structural   Li3Mn4(BO3)4
_chemical_formula_sum   'Li3 Mn4 B4 O12'
_cell_volume   252.32391063
_cell_formula_units_Z   1
loop_
 _symmetry_equiv_pos_site_id
 _symmetry_equiv_pos_as_xyz
  1  'x, y, z'
loop_
 _atom_site_type_symbol
 _atom_site_label
 _atom_site_symmetry_multiplicity
 _atom_site_fract_x
 _atom_site_fract_y
 _atom_site_fract_z
 _atom_site_occupancy
  Li  Li0  1  0.16963836  0.55211742  0.10579800  1
  Li  Li1  1  0.67906571  0.06330735  0.62053854  1
  Li  Li2  1  0.31487658  0.93017617  0.38438409  1
  Mn  Mn3  1  0.79627159  0.04460856  0.19050153  1
  Mn  Mn4  1  0.70233296  0.45712302  0.29871726  1
  Mn  Mn5  1  0.30491680  0.53366804  0.71537586  1
  Mn  Mn6  1  0.18446186  0.94973064  0.79821372  1
  B  B7  1  0.29168535  0.19928494  0.03773438  1
  B  B8  1  0.19928883  0.27494121  0.46411234  1
  B  B9  1  0.81730526  0.74836518  0.53430305  1
  B  B10  1  0.69631208  0.78104893  0.96441891  1
  O  O11  1  0.07069611  0.26528364  0.02884306  1
  O  O12  1  0.45524077  0.13448334  0.17961256  1
  O  O13  1  0.58749577  0.72150977  0.10149517  1
  O  O14  1  0.04858221  0.35730437  0.32183907  1
  O  O15  1  0.43881430  0.23083038  0.47257180  1
  O  O16  1  0.09526625  0.22447792  0.60344683  1
  O  O17  1  0.90260721  0.77649567  0.39635059  1
  O  O18  1  0.56711805  0.76694581  0.53574111  1
  O  O19  1  0.00689507  0.70994855  0.67176450  1
  O  O20  1  0.37085749  0.22012342  0.89651363  1
  O  O21  1  0.53782760  0.85320874  0.82199993  1
  O  O22  1  0.94807179  0.75663993  0.97261606  1
