# generated using pymatgen
data_Li2Mn3(BO3)3
_symmetry_space_group_name_H-M   'P 1'
_cell_length_a   16.54772000
_cell_length_b   12.67762400
_cell_length_c   8.28653121
_cell_angle_alpha   90.00000000
_cell_angle_beta   120.00817910
_cell_angle_gamma   90.00000000
_symmetry_Int_Tables_number   1
_chemical_formula_structural   Li2Mn3(BO3)3
_chemical_formula_sum   'Li16 Mn24 B24 O72'
_cell_volume   1505.37130392
_cell_formula_units_Z   8
loop_
 _symmetry_equiv_pos_site_id
 _symmetry_equiv_pos_as_xyz
  1  'x, y, z'
loop_
 _atom_site_type_symbol
 _atom_site_label
 _atom_site_symmetry_multiplicity
 _atom_site_fract_x
 _atom_site_fract_y
 _atom_site_fract_z
 _atom_site_occupancy
  Li  Li0  1  0.23434050  0.25319450  0.70300400  1
  Li  Li1  1  0.23594700  0.50000000  0.70263800  1
  Li  Li2  1  0.02602100  0.50000000  0.02776600  1
  Li  Li3  1  0.23434050  0.74680550  0.70300400  1
  Li  Li4  1  0.52453000  0.50000000  0.01628200  1
  Li  Li5  1  0.86313750  0.24799950  0.27321500  1
  Li  Li6  1  0.86313750  0.75200050  0.27321500  1
  Li  Li7  1  0.86641600  0.50000000  0.29121900  1
  Li  Li8  1  0.73434050  0.75319450  0.70300400  1
  Li  Li9  1  0.73594700  0.00000000  0.70263800  1
  Li  Li10  1  0.52602100  0.00000000  0.02776600  1
  Li  Li11  1  0.73434050  0.24680550  0.70300400  1
  Li  Li12  1  0.02453000  0.00000000  0.01628200  1
  Li  Li13  1  0.36313750  0.74799950  0.27321500  1
  Li  Li14  1  0.36313750  0.25200050  0.27321500  1
  Li  Li15  1  0.36641600  0.00000000  0.29121900  1
  Mn  Mn16  1  0.18876150  0.37493250  0.99479000  1
  Mn  Mn17  1  0.88172100  0.37396900  0.66080800  1
  Mn  Mn18  1  0.88172100  0.62603100  0.66080800  1
  Mn  Mn19  1  0.88315150  0.12195750  0.62261000  1
  Mn  Mn20  1  0.05236950  0.12254650  0.35758500  1
  Mn  Mn21  1  0.05509850  0.37333750  0.37163000  1
  Mn  Mn22  1  0.05509850  0.62666250  0.37163000  1
  Mn  Mn23  1  0.18876150  0.62506750  0.99479000  1
  Mn  Mn24  1  0.68871500  0.37420900  0.98555200  1
  Mn  Mn25  1  0.68871500  0.62579100  0.98555200  1
  Mn  Mn26  1  0.88315150  0.87804250  0.62261000  1
  Mn  Mn27  1  0.05236950  0.87745350  0.35758500  1
  Mn  Mn28  1  0.68876150  0.87493250  0.99479000  1
  Mn  Mn29  1  0.38172100  0.87396900  0.66080800  1
  Mn  Mn30  1  0.38172100  0.12603100  0.66080800  1
  Mn  Mn31  1  0.38315150  0.62195750  0.62261000  1
  Mn  Mn32  1  0.55236950  0.62254650  0.35758500  1
  Mn  Mn33  1  0.55509850  0.87333750  0.37163000  1
  Mn  Mn34  1  0.55509850  0.12666250  0.37163000  1
  Mn  Mn35  1  0.68876150  0.12506750  0.99479000  1
  Mn  Mn36  1  0.18871500  0.87420900  0.98555200  1
  Mn  Mn37  1  0.18871500  0.12579100  0.98555200  1
  Mn  Mn38  1  0.38315150  0.37804250  0.62261000  1
  Mn  Mn39  1  0.55236950  0.37745350  0.35758500  1
  B  B40  1  0.37298800  0.37308400  0.98421900  1
  B  B41  1  0.20728300  0.50000000  0.34179700  1
  B  B42  1  0.37298800  0.62691600  0.98421900  1
  B  B43  1  0.21207200  0.25384700  0.33821900  1
  B  B44  1  0.21207200  0.74615300  0.33821900  1
  B  B45  1  0.04335800  0.50000000  0.67575700  1
  B  B46  1  0.70824500  0.50000000  0.33368100  1
  B  B47  1  0.03939450  0.24239750  0.65452200  1
  B  B48  1  0.54001600  0.50000000  0.66293300  1
  B  B49  1  0.87560600  0.37411200  0.01153200  1
  B  B50  1  0.87560600  0.62588800  0.01153200  1
  B  B51  1  0.03939450  0.75760250  0.65452200  1
  B  B52  1  0.87298800  0.87308400  0.98421900  1
  B  B53  1  0.70728300  0.00000000  0.34179700  1
  B  B54  1  0.87298800  0.12691600  0.98421900  1
  B  B55  1  0.71207200  0.75384700  0.33821900  1
  B  B56  1  0.71207200  0.24615300  0.33821900  1
  B  B57  1  0.54335800  0.00000000  0.67575700  1
  B  B58  1  0.20824500  0.00000000  0.33368100  1
  B  B59  1  0.53939450  0.74239750  0.65452200  1
  B  B60  1  0.04001600  0.00000000  0.66293300  1
  B  B61  1  0.37560600  0.87411200  0.01153200  1
  B  B62  1  0.37560600  0.12588800  0.01153200  1
  B  B63  1  0.53939450  0.25760250  0.65452200  1
  O  O64  1  0.32185100  0.37887000  0.78881600  1
  O  O65  1  0.15233600  0.50000000  0.42319300  1
  O  O66  1  0.15628300  0.24991600  0.41724200  1
  O  O67  1  0.97123400  0.38486900  0.09383000  1
  O  O68  1  0.97123400  0.61513100  0.09383000  1
  O  O69  1  0.96850100  0.11747000  0.07861800  1
  O  O70  1  0.82234050  0.35960850  0.82181500  1
  O  O71  1  0.82234050  0.64039150  0.82181500  1
  O  O72  1  0.32185100  0.62113000  0.78881600  1
  O  O73  1  0.16886100  0.50000000  0.15151300  1
  O  O74  1  0.18070750  0.24999150  0.15110500  1
  O  O75  1  0.32590650  0.35842850  0.08051800  1
  O  O76  1  0.47506200  0.50000000  0.73504700  1
  O  O77  1  0.98737500  0.50000000  0.75824200  1
  O  O78  1  0.15628300  0.75008400  0.41724200  1
  O  O79  1  0.64543800  0.50000000  0.39718100  1
  O  O80  1  0.98136000  0.22947200  0.73088300  1
  O  O81  1  0.98136000  0.77052800  0.73088300  1
  O  O82  1  0.30482200  0.50000000  0.46023000  1
  O  O83  1  0.81041900  0.23953700  0.45637500  1
  O  O84  1  0.81041900  0.76046300  0.45637500  1
  O  O85  1  0.14076400  0.50000000  0.79013800  1
  O  O86  1  0.80421100  0.50000000  0.45408000  1
  O  O87  1  0.13438750  0.25267550  0.77340500  1
  O  O88  1  0.96850100  0.88253000  0.07861800  1
  O  O89  1  0.00323400  0.50000000  0.48404400  1
  O  O90  1  0.18070750  0.75000850  0.15110500  1
  O  O91  1  0.67106000  0.50000000  0.14178000  1
  O  O92  1  0.00045350  0.24539250  0.46177400  1
  O  O93  1  0.83375400  0.37775800  0.12212600  1
  O  O94  1  0.83375400  0.62224200  0.12212600  1
  O  O95  1  0.32590650  0.64157150  0.08051800  1
  O  O96  1  0.63227500  0.50000000  0.79207600  1
  O  O97  1  0.13438750  0.74732450  0.77340500  1
  O  O98  1  0.50366300  0.50000000  0.47576000  1
  O  O99  1  0.00045350  0.75460750  0.46177400  1
  O  O100  1  0.82185100  0.87887000  0.78881600  1
  O  O101  1  0.65233600  0.00000000  0.42319300  1
  O  O102  1  0.65628300  0.74991600  0.41724200  1
  O  O103  1  0.47123400  0.88486900  0.09383000  1
  O  O104  1  0.47123400  0.11513100  0.09383000  1
  O  O105  1  0.46850100  0.61747000  0.07861800  1
  O  O106  1  0.32234050  0.85960850  0.82181500  1
  O  O107  1  0.32234050  0.14039150  0.82181500  1
  O  O108  1  0.82185100  0.12113000  0.78881600  1
  O  O109  1  0.66886100  0.00000000  0.15151300  1
  O  O110  1  0.68070750  0.74999150  0.15110500  1
  O  O111  1  0.82590650  0.85842850  0.08051800  1
  O  O112  1  0.97506200  0.00000000  0.73504700  1
  O  O113  1  0.48737500  0.00000000  0.75824200  1
  O  O114  1  0.65628300  0.25008400  0.41724200  1
  O  O115  1  0.14543800  0.00000000  0.39718100  1
  O  O116  1  0.48136000  0.72947200  0.73088300  1
  O  O117  1  0.48136000  0.27052800  0.73088300  1
  O  O118  1  0.80482200  0.00000000  0.46023000  1
  O  O119  1  0.31041900  0.73953700  0.45637500  1
  O  O120  1  0.31041900  0.26046300  0.45637500  1
  O  O121  1  0.64076400  0.00000000  0.79013800  1
  O  O122  1  0.30421100  0.00000000  0.45408000  1
  O  O123  1  0.63438750  0.75267550  0.77340500  1
  O  O124  1  0.46850100  0.38253000  0.07861800  1
  O  O125  1  0.50323400  0.00000000  0.48404400  1
  O  O126  1  0.68070750  0.25000850  0.15110500  1
  O  O127  1  0.17106000  0.00000000  0.14178000  1
  O  O128  1  0.50045350  0.74539250  0.46177400  1
  O  O129  1  0.33375400  0.87775800  0.12212600  1
  O  O130  1  0.33375400  0.12224200  0.12212600  1
  O  O131  1  0.82590650  0.14157150  0.08051800  1
  O  O132  1  0.13227500  0.00000000  0.79207600  1
  O  O133  1  0.63438750  0.24732450  0.77340500  1
  O  O134  1  0.00366300  0.00000000  0.47576000  1
  O  O135  1  0.50045350  0.25460750  0.46177400  1
