# generated using pymatgen
data_Li4NbFe(WO6)2
_symmetry_space_group_name_H-M   'P 1'
_cell_length_a   5.18059717
_cell_length_b   5.48886872
_cell_length_c   7.57568538
_cell_angle_alpha   94.55299366
_cell_angle_beta   90.08095200
_cell_angle_gamma   90.10981922
_symmetry_Int_Tables_number   1
_chemical_formula_structural   Li4NbFe(WO6)2
_chemical_formula_sum   'Li4 Nb1 Fe1 W2 O12'
_cell_volume   214.73884413
_cell_formula_units_Z   1
loop_
 _symmetry_equiv_pos_site_id
 _symmetry_equiv_pos_as_xyz
  1  'x, y, z'
loop_
 _atom_site_type_symbol
 _atom_site_label
 _atom_site_symmetry_multiplicity
 _atom_site_fract_x
 _atom_site_fract_y
 _atom_site_fract_z
 _atom_site_occupancy
  Li  Li0  1  0.00094250  0.41046400  0.27135450  1
  Li  Li1  1  0.49812200  0.93648100  0.80620700  1
  Li  Li2  1  0.99507550  0.41327600  0.80767550  1
  Li  Li3  1  0.50433200  0.97427100  0.25136800  1
  Nb  Nb4  1  0.50141500  0.48321100  0.51333500  1
  Fe  Fe5  1  0.99962950  0.99119400  0.00080450  1
  W  W6  1  0.99701650  0.98159700  0.49840050  1
  W  W7  1  0.50562250  0.50289500  0.01042300  1
  O  O8  1  0.30669650  0.19550500  0.42931150  1
  O  O9  1  0.11933450  0.01858800  0.73334750  1
  O  O10  1  0.32134100  0.81469500  0.04572500  1
  O  O11  1  0.18291250  0.69679900  0.42891800  1
  O  O12  1  0.79287900  0.69711900  0.92902650  1
  O  O13  1  0.37248900  0.51246800  0.74743850  1
  O  O14  1  0.62406150  0.51603500  0.24719500  1
  O  O15  1  0.19722850  0.32446100  0.04831200  1
  O  O16  1  0.81904050  0.32020500  0.55522650  1
  O  O17  1  0.69300100  0.21350600  0.93441200  1
  O  O18  1  0.88447050  0.02774800  0.25774250  1
  O  O19  1  0.68438550  0.82708300  0.55497650  1
