# generated using pymatgen
data_MnOF
_symmetry_space_group_name_H-M   'P 1'
_cell_length_a   5.62455400
_cell_length_b   4.67787200
_cell_length_c   11.70829335
_cell_angle_alpha   90.00000000
_cell_angle_beta   118.14933270
_cell_angle_gamma   90.00000000
_symmetry_Int_Tables_number   1
_chemical_formula_structural   MnOF
_chemical_formula_sum   'Mn8 O8 F8'
_cell_volume   271.61965880
_cell_formula_units_Z   8
loop_
 _symmetry_equiv_pos_site_id
 _symmetry_equiv_pos_as_xyz
  1  'x, y, z'
loop_
 _atom_site_type_symbol
 _atom_site_label
 _atom_site_symmetry_multiplicity
 _atom_site_fract_x
 _atom_site_fract_y
 _atom_site_fract_z
 _atom_site_occupancy
  Mn  Mn0  1  0.52365800  0.45148300  0.87570500  1
  Mn  Mn1  1  0.47634200  0.54851700  0.12429500  1
  Mn  Mn2  1  0.02400600  0.53732100  0.37371900  1
  Mn  Mn3  1  0.97599400  0.46267900  0.62628100  1
  Mn  Mn4  1  0.47634200  0.95148300  0.62429500  1
  Mn  Mn5  1  0.97599400  0.03732100  0.12628100  1
  Mn  Mn6  1  0.52365800  0.04851700  0.37570500  1
  Mn  Mn7  1  0.02400600  0.96267900  0.87371900  1
  O  O8  1  0.15852800  0.71442100  0.54400200  1
  O  O9  1  0.18052500  0.66131600  0.79300600  1
  O  O10  1  0.18052500  0.83868400  0.29300600  1
  O  O11  1  0.15852800  0.78557900  0.04400200  1
  O  O12  1  0.84147200  0.21442100  0.95599800  1
  O  O13  1  0.81947500  0.16131600  0.70699400  1
  O  O14  1  0.81947500  0.33868400  0.20699400  1
  O  O15  1  0.84147200  0.28557900  0.45599800  1
  F  F16  1  0.63772800  0.75481900  0.03213500  1
  F  F17  1  0.67292600  0.80933600  0.28846100  1
  F  F18  1  0.67292600  0.69066400  0.78846100  1
  F  F19  1  0.63772800  0.74518100  0.53213500  1
  F  F20  1  0.36227200  0.25481900  0.46786500  1
  F  F21  1  0.32707400  0.30933600  0.21153900  1
  F  F22  1  0.32707400  0.19066400  0.71153900  1
  F  F23  1  0.36227200  0.24518100  0.96786500  1
