# generated using pymatgen
data_Li4V3Fe2Sb3O16
_symmetry_space_group_name_H-M   'P 1'
_cell_length_a   10.66505800
_cell_length_b   6.16151600
_cell_length_c   9.93696180
_cell_angle_alpha   90.00000000
_cell_angle_beta   90.29284686
_cell_angle_gamma   90.00000000
_symmetry_Int_Tables_number   1
_chemical_formula_structural   Li4V3Fe2Sb3O16
_chemical_formula_sum   'Li8 V6 Fe4 Sb6 O32'
_cell_volume   652.97830100
_cell_formula_units_Z   2
loop_
 _symmetry_equiv_pos_site_id
 _symmetry_equiv_pos_as_xyz
  1  'x, y, z'
loop_
 _atom_site_type_symbol
 _atom_site_label
 _atom_site_symmetry_multiplicity
 _atom_site_fract_x
 _atom_site_fract_y
 _atom_site_fract_z
 _atom_site_occupancy
  Li  Li0  1  0.33550400  0.00000000  0.87428600  1
  Li  Li1  1  0.00838800  0.00000000  0.99051800  1
  Li  Li2  1  0.00544900  0.00000000  0.50599300  1
  Li  Li3  1  0.67204100  0.00000000  0.40069800  1
  Li  Li4  1  0.83550400  0.50000000  0.87428600  1
  Li  Li5  1  0.50838800  0.50000000  0.99051800  1
  Li  Li6  1  0.50544900  0.50000000  0.50599300  1
  Li  Li7  1  0.17204100  0.50000000  0.40069800  1
  V  V8  1  0.16759200  0.00000000  0.21700600  1
  V  V9  1  0.58289250  0.75358250  0.71421400  1
  V  V10  1  0.58289250  0.24641750  0.71421400  1
  V  V11  1  0.66759200  0.50000000  0.21700600  1
  V  V12  1  0.08289250  0.25358250  0.71421400  1
  V  V13  1  0.08289250  0.74641750  0.71421400  1
  Fe  Fe14  1  0.32643300  0.00000000  0.51417800  1
  Fe  Fe15  1  0.65561300  0.00000000  0.97740700  1
  Fe  Fe16  1  0.82643300  0.50000000  0.51417800  1
  Fe  Fe17  1  0.15561300  0.50000000  0.97740700  1
  Sb  Sb18  1  0.41530700  0.75311500  0.21609000  1
  Sb  Sb19  1  0.41530700  0.24688500  0.21609000  1
  Sb  Sb20  1  0.82907700  0.00000000  0.71501900  1
  Sb  Sb21  1  0.91530700  0.25311500  0.21609000  1
  Sb  Sb22  1  0.91530700  0.74688500  0.21609000  1
  Sb  Sb23  1  0.32907700  0.50000000  0.71501900  1
  O  O24  1  0.41740300  0.73300500  0.60115600  1
  O  O25  1  0.48747500  0.00000000  0.32976000  1
  O  O26  1  0.33669200  0.00000000  0.10330500  1
  O  O27  1  0.99615600  0.00000000  0.32056600  1
  O  O28  1  0.99409900  0.00000000  0.81338200  1
  O  O29  1  0.41740300  0.26699500  0.60115600  1
  O  O30  1  0.26079200  0.77344900  0.32547700  1
  O  O31  1  0.26079200  0.22655100  0.32547700  1
  O  O32  1  0.84422200  0.00000000  0.10373000  1
  O  O33  1  0.15456500  0.00000000  0.60963800  1
  O  O34  1  0.74368700  0.77693600  0.83279400  1
  O  O35  1  0.74368700  0.22306400  0.83279400  1
  O  O36  1  0.67140000  0.00000000  0.60144300  1
  O  O37  1  0.57361400  0.73295800  0.10998100  1
  O  O38  1  0.51788200  0.00000000  0.83136600  1
  O  O39  1  0.57361400  0.26704200  0.10998100  1
  O  O40  1  0.91740300  0.23300500  0.60115600  1
  O  O41  1  0.98747500  0.50000000  0.32976000  1
  O  O42  1  0.83669200  0.50000000  0.10330500  1
  O  O43  1  0.49615600  0.50000000  0.32056600  1
  O  O44  1  0.49409900  0.50000000  0.81338200  1
  O  O45  1  0.91740300  0.76699500  0.60115600  1
  O  O46  1  0.76079200  0.27344900  0.32547700  1
  O  O47  1  0.76079200  0.72655100  0.32547700  1
  O  O48  1  0.34422200  0.50000000  0.10373000  1
  O  O49  1  0.65456500  0.50000000  0.60963800  1
  O  O50  1  0.24368700  0.27693600  0.83279400  1
  O  O51  1  0.24368700  0.72306400  0.83279400  1
  O  O52  1  0.17140000  0.50000000  0.60144300  1
  O  O53  1  0.07361400  0.23295800  0.10998100  1
  O  O54  1  0.01788200  0.50000000  0.83136600  1
  O  O55  1  0.07361400  0.76704200  0.10998100  1
