# generated using pymatgen
data_Li5(FeO2)4
_symmetry_space_group_name_H-M   'P 1'
_cell_length_a   6.06394791
_cell_length_b   6.06394791
_cell_length_c   14.89295315
_cell_angle_alpha   90.00000000
_cell_angle_beta   90.00000000
_cell_angle_gamma   120.00000000
_symmetry_Int_Tables_number   1
_chemical_formula_structural   Li5(FeO2)4
_chemical_formula_sum   'Li15 Fe12 O24'
_cell_volume   474.26642296
_cell_formula_units_Z   3
loop_
 _symmetry_equiv_pos_site_id
 _symmetry_equiv_pos_as_xyz
  1  'x, y, z'
loop_
 _atom_site_type_symbol
 _atom_site_label
 _atom_site_symmetry_multiplicity
 _atom_site_fract_x
 _atom_site_fract_y
 _atom_site_fract_z
 _atom_site_occupancy
  Li  Li0  1  0.39192333  0.19596167  0.16146067  1
  Li  Li1  1  0.80403833  0.60807667  0.16146067  1
  Li  Li2  1  0.00000000  0.00000000  0.12469400  1
  Li  Li3  1  0.80403833  0.19596167  0.16146067  1
  Li  Li4  1  0.33333333  0.66666667  0.15808467  1
  Li  Li5  1  0.05859000  0.52929500  0.49479400  1
  Li  Li6  1  0.47070500  0.94141000  0.49479400  1
  Li  Li7  1  0.66666667  0.33333333  0.45802733  1
  Li  Li8  1  0.47070500  0.52929500  0.49479400  1
  Li  Li9  1  0.00000000  0.00000000  0.49141800  1
  Li  Li10  1  0.72525667  0.86262833  0.82812733  1
  Li  Li11  1  0.13737167  0.27474333  0.82812733  1
  Li  Li12  1  0.33333333  0.66666667  0.79136067  1
  Li  Li13  1  0.13737167  0.86262833  0.82812733  1
  Li  Li14  1  0.66666667  0.33333333  0.82475133  1
  Fe  Fe15  1  0.66666667  0.33333333  0.31102733  1
  Fe  Fe16  1  0.16657133  0.83342867  0.32376367  1
  Fe  Fe17  1  0.66685733  0.83342867  0.32376367  1
  Fe  Fe18  1  0.16657133  0.33314267  0.32376367  1
  Fe  Fe19  1  0.33333333  0.66666667  0.64436067  1
  Fe  Fe20  1  0.83323800  0.16676200  0.65709700  1
  Fe  Fe21  1  0.33352400  0.16676200  0.65709700  1
  Fe  Fe22  1  0.83323800  0.66647600  0.65709700  1
  Fe  Fe23  1  0.00000000  0.00000000  0.97769400  1
  Fe  Fe24  1  0.49990467  0.50009533  0.99043033  1
  Fe  Fe25  1  0.00019067  0.50009533  0.99043033  1
  Fe  Fe26  1  0.49990467  0.99980933  0.99043033  1
  O  O27  1  0.00000000  0.00000000  0.24831700  1
  O  O28  1  0.16787800  0.33575600  0.06584400  1
  O  O29  1  0.66424400  0.83212200  0.06584400  1
  O  O30  1  0.16787800  0.83212200  0.06584400  1
  O  O31  1  0.49257000  0.50743000  0.24469000  1
  O  O32  1  0.01486000  0.50743000  0.24469000  1
  O  O33  1  0.49257000  0.98514000  0.24469000  1
  O  O34  1  0.66666667  0.33333333  0.06762733  1
  O  O35  1  0.66666667  0.33333333  0.58165033  1
  O  O36  1  0.83454467  0.66908933  0.39917733  1
  O  O37  1  0.33091067  0.16545533  0.39917733  1
  O  O38  1  0.83454467  0.16545533  0.39917733  1
  O  O39  1  0.15923667  0.84076333  0.57802333  1
  O  O40  1  0.68152667  0.84076333  0.57802333  1
  O  O41  1  0.15923667  0.31847333  0.57802333  1
  O  O42  1  0.33333333  0.66666667  0.40096067  1
  O  O43  1  0.33333333  0.66666667  0.91498367  1
  O  O44  1  0.50121133  0.00242267  0.73251067  1
  O  O45  1  0.99757733  0.49878867  0.73251067  1
  O  O46  1  0.50121133  0.49878867  0.73251067  1
  O  O47  1  0.82590333  0.17409667  0.91135667  1
  O  O48  1  0.34819333  0.17409667  0.91135667  1
  O  O49  1  0.82590333  0.65180667  0.91135667  1
  O  O50  1  0.00000000  0.00000000  0.73429400  1
