# generated using pymatgen
data_Li2V3CrO8
_symmetry_space_group_name_H-M   'P 1'
_cell_length_a   12.20817200
_cell_length_b   4.03161400
_cell_length_c   6.49447562
_cell_angle_alpha   90.00000000
_cell_angle_beta   107.26804192
_cell_angle_gamma   90.00000000
_symmetry_Int_Tables_number   1
_chemical_formula_structural   Li2V3CrO8
_chemical_formula_sum   'Li4 V6 Cr2 O16'
_cell_volume   305.24153529
_cell_formula_units_Z   2
loop_
 _symmetry_equiv_pos_site_id
 _symmetry_equiv_pos_as_xyz
  1  'x, y, z'
loop_
 _atom_site_type_symbol
 _atom_site_label
 _atom_site_symmetry_multiplicity
 _atom_site_fract_x
 _atom_site_fract_y
 _atom_site_fract_z
 _atom_site_occupancy
  Li  Li0  1  0.05750600  0.00000000  0.35084900  1
  Li  Li1  1  0.44416200  0.50000000  0.64690200  1
  Li  Li2  1  0.55750600  0.50000000  0.35084900  1
  Li  Li3  1  0.94416200  0.00000000  0.64690200  1
  V  V4  1  0.38932700  0.00000000  0.28035000  1
  V  V5  1  0.10911500  0.50000000  0.71866400  1
  V  V6  1  0.28873900  0.00000000  0.69018200  1
  V  V7  1  0.88932700  0.50000000  0.28035000  1
  V  V8  1  0.60911500  0.00000000  0.71866400  1
  V  V9  1  0.78873900  0.50000000  0.69018200  1
  Cr  Cr10  1  0.21187000  0.50000000  0.30979800  1
  Cr  Cr11  1  0.71187000  0.00000000  0.30979800  1
  O  O12  1  0.11856600  0.00000000  0.67867600  1
  O  O13  1  0.23261700  0.00000000  0.34582500  1
  O  O14  1  0.35090100  0.00000000  0.00747100  1
  O  O15  1  0.44074700  0.00000000  0.64012900  1
  O  O16  1  0.05945400  0.50000000  0.36596400  1
  O  O17  1  0.14961000  0.50000000  0.99384100  1
  O  O18  1  0.26793000  0.50000000  0.64971200  1
  O  O19  1  0.37945600  0.50000000  0.32164200  1
  O  O20  1  0.61856600  0.50000000  0.67867600  1
  O  O21  1  0.73261700  0.50000000  0.34582500  1
  O  O22  1  0.85090100  0.50000000  0.00747100  1
  O  O23  1  0.94074700  0.50000000  0.64012900  1
  O  O24  1  0.55945400  0.00000000  0.36596400  1
  O  O25  1  0.64961000  0.00000000  0.99384100  1
  O  O26  1  0.76793000  0.00000000  0.64971200  1
  O  O27  1  0.87945600  0.00000000  0.32164200  1
