# generated using pymatgen
data_Zn5Co19O32
_symmetry_space_group_name_H-M   'P 1'
_cell_length_a   5.77482985
_cell_length_b   5.77482985
_cell_length_c   56.57670357
_cell_angle_alpha   90.00000000
_cell_angle_beta   90.00000000
_cell_angle_gamma   120.00000000
_symmetry_Int_Tables_number   1
_chemical_formula_structural   Zn5Co19O32
_chemical_formula_sum   'Zn15 Co57 O96'
_cell_volume   1633.97970300
_cell_formula_units_Z   3
loop_
 _symmetry_equiv_pos_site_id
 _symmetry_equiv_pos_as_xyz
  1  'x, y, z'
loop_
 _atom_site_type_symbol
 _atom_site_label
 _atom_site_symmetry_multiplicity
 _atom_site_fract_x
 _atom_site_fract_y
 _atom_site_fract_z
 _atom_site_occupancy
  Zn  Zn0  1  0.00000000  0.00000000  0.00002200  1
  Zn  Zn1  1  0.66666667  0.33333333  0.02082733  1
  Zn  Zn2  1  0.66666667  0.33333333  0.08332933  1
  Zn  Zn3  1  0.00000000  0.00000000  0.18751500  1
  Zn  Zn4  1  0.00000000  0.00000000  0.24996600  1
  Zn  Zn5  1  0.66666667  0.33333333  0.33335533  1
  Zn  Zn6  1  0.33333333  0.66666667  0.35416067  1
  Zn  Zn7  1  0.33333333  0.66666667  0.41666267  1
  Zn  Zn8  1  0.66666667  0.33333333  0.52084833  1
  Zn  Zn9  1  0.66666667  0.33333333  0.58329933  1
  Zn  Zn10  1  0.33333333  0.66666667  0.66668867  1
  Zn  Zn11  1  0.00000000  0.00000000  0.68749400  1
  Zn  Zn12  1  0.00000000  0.00000000  0.74999600  1
  Zn  Zn13  1  0.33333333  0.66666667  0.85418167  1
  Zn  Zn14  1  0.33333333  0.66666667  0.91663267  1
  Co  Co15  1  0.33333333  0.66666667  0.01042067  1
  Co  Co16  1  0.16676867  0.83323133  0.05212633  1
  Co  Co17  1  0.66646267  0.83323133  0.05212633  1
  Co  Co18  1  0.16676867  0.33353733  0.05212633  1
  Co  Co19  1  0.33333333  0.66666667  0.10413867  1
  Co  Co20  1  0.00000000  0.00000000  0.09378400  1
  Co  Co21  1  0.50000433  0.00000867  0.21875167  1
  Co  Co22  1  0.33334600  0.16667300  0.13541700  1
  Co  Co23  1  0.83332700  0.66665400  0.13541700  1
  Co  Co24  1  0.50000433  0.49999567  0.21875167  1
  Co  Co25  1  0.66666667  0.33333333  0.17706533  1
  Co  Co26  1  0.83332700  0.16667300  0.13541700  1
  Co  Co27  1  0.33333333  0.66666667  0.16669567  1
  Co  Co28  1  0.99999133  0.49999567  0.21875167  1
  Co  Co29  1  0.66658733  0.83329367  0.30202967  1
  Co  Co30  1  0.66666667  0.33333333  0.27083433  1
  Co  Co31  1  0.33333333  0.66666667  0.26042567  1
  Co  Co32  1  0.16670633  0.83329367  0.30202967  1
  Co  Co33  1  0.16670633  0.33341267  0.30202967  1
  Co  Co34  1  0.00000000  0.00000000  0.34375400  1
  Co  Co35  1  0.83343533  0.16656467  0.38545967  1
  Co  Co36  1  0.33312933  0.16656467  0.38545967  1
  Co  Co37  1  0.83343533  0.66687067  0.38545967  1
  Co  Co38  1  0.00000000  0.00000000  0.43747200  1
  Co  Co39  1  0.66666667  0.33333333  0.42711733  1
  Co  Co40  1  0.16667100  0.33334200  0.55208500  1
  Co  Co41  1  0.00001267  0.50000633  0.46875033  1
  Co  Co42  1  0.49999367  0.99998733  0.46875033  1
  Co  Co43  1  0.16667100  0.83332900  0.55208500  1
  Co  Co44  1  0.33333333  0.66666667  0.51039867  1
  Co  Co45  1  0.49999367  0.50000633  0.46875033  1
  Co  Co46  1  0.00000000  0.00000000  0.50002900  1
  Co  Co47  1  0.66665800  0.83332900  0.55208500  1
  Co  Co48  1  0.33325400  0.16662700  0.63536300  1
  Co  Co49  1  0.33333333  0.66666667  0.60416767  1
  Co  Co50  1  0.00000000  0.00000000  0.59375900  1
  Co  Co51  1  0.83337300  0.16662700  0.63536300  1
  Co  Co52  1  0.83337300  0.66674600  0.63536300  1
  Co  Co53  1  0.66666667  0.33333333  0.67708733  1
  Co  Co54  1  0.50010200  0.49989800  0.71879300  1
  Co  Co55  1  0.99979600  0.49989800  0.71879300  1
  Co  Co56  1  0.50010200  0.00020400  0.71879300  1
  Co  Co57  1  0.66666667  0.33333333  0.77080533  1
  Co  Co58  1  0.33333333  0.66666667  0.76045067  1
  Co  Co59  1  0.83333767  0.66667533  0.88541833  1
  Co  Co60  1  0.66667933  0.83333967  0.80208367  1
  Co  Co61  1  0.16666033  0.33332067  0.80208367  1
  Co  Co62  1  0.83333767  0.16666233  0.88541833  1
  Co  Co63  1  0.00000000  0.00000000  0.84373200  1
  Co  Co64  1  0.16666033  0.83333967  0.80208367  1
  Co  Co65  1  0.66666667  0.33333333  0.83336233  1
  Co  Co66  1  0.33332467  0.16666233  0.88541833  1
  Co  Co67  1  0.99992067  0.49996033  0.96869633  1
  Co  Co68  1  0.00000000  0.00000000  0.93750100  1
  Co  Co69  1  0.66666667  0.33333333  0.92709233  1
  Co  Co70  1  0.50003967  0.49996033  0.96869633  1
  Co  Co71  1  0.50003967  0.00007933  0.96869633  1
  O  O72  1  0.48086300  0.96172600  0.03247200  1
  O  O73  1  0.33333333  0.66666667  0.06950767  1
  O  O74  1  0.48086300  0.51913700  0.03247200  1
  O  O75  1  0.00000000  0.00000000  0.03485500  1
  O  O76  1  0.85236533  0.70473067  0.07174467  1
  O  O77  1  0.29526933  0.14763467  0.07174467  1
  O  O78  1  0.51837933  0.03675867  0.15511867  1
  O  O79  1  0.70339467  0.85169733  0.11571533  1
  O  O80  1  0.03827400  0.51913700  0.03247200  1
  O  O81  1  0.00000000  0.00000000  0.15264400  1
  O  O82  1  0.14830267  0.85169733  0.11571533  1
  O  O83  1  0.81422867  0.18577133  0.19912833  1
  O  O84  1  0.51837933  0.48162067  0.15511867  1
  O  O85  1  0.66666667  0.33333333  0.11819233  1
  O  O86  1  0.85236533  0.14763467  0.07174467  1
  O  O87  1  0.96324133  0.48162067  0.15511867  1
  O  O88  1  0.62845667  0.81422833  0.23837233  1
  O  O89  1  0.81422867  0.62845733  0.19912833  1
  O  O90  1  0.37154267  0.18577133  0.19912833  1
  O  O91  1  0.14830267  0.29660533  0.11571533  1
  O  O92  1  0.66666667  0.33333333  0.23617033  1
  O  O93  1  0.85241267  0.14758733  0.32171033  1
  O  O94  1  0.33333333  0.66666667  0.20133967  1
  O  O95  1  0.18577167  0.81422833  0.23837233  1
  O  O96  1  0.00000000  0.00000000  0.28478800  1
  O  O97  1  0.85241267  0.70482533  0.32171033  1
  O  O98  1  0.29517467  0.14758733  0.32171033  1
  O  O99  1  0.18577167  0.37154333  0.23837233  1
  O  O100  1  0.48160767  0.96321533  0.28237033  1
  O  O101  1  0.03678467  0.51839233  0.28237033  1
  O  O102  1  0.33333333  0.66666667  0.31927667  1
  O  O103  1  0.48160767  0.51839233  0.28237033  1
  O  O104  1  0.14752967  0.29505933  0.36580533  1
  O  O105  1  0.00000000  0.00000000  0.40284100  1
  O  O106  1  0.14752967  0.85247033  0.36580533  1
  O  O107  1  0.66666667  0.33333333  0.36818833  1
  O  O108  1  0.51903200  0.03806400  0.40507800  1
  O  O109  1  0.96193600  0.48096800  0.40507800  1
  O  O110  1  0.18504600  0.37009200  0.48845200  1
  O  O111  1  0.37006133  0.18503067  0.44904867  1
  O  O112  1  0.70494067  0.85247033  0.36580533  1
  O  O113  1  0.66666667  0.33333333  0.48597733  1
  O  O114  1  0.81496933  0.18503067  0.44904867  1
  O  O115  1  0.48089533  0.51910467  0.53246167  1
  O  O116  1  0.18504600  0.81495400  0.48845200  1
  O  O117  1  0.33333333  0.66666667  0.45152567  1
  O  O118  1  0.51903200  0.48096800  0.40507800  1
  O  O119  1  0.62990800  0.81495400  0.48845200  1
  O  O120  1  0.29512333  0.14756167  0.57170567  1
  O  O121  1  0.48089533  0.96179067  0.53246167  1
  O  O122  1  0.03820933  0.51910467  0.53246167  1
  O  O123  1  0.81496933  0.62993867  0.44904867  1
  O  O124  1  0.33333333  0.66666667  0.56950367  1
  O  O125  1  0.51907933  0.48092067  0.65504367  1
  O  O126  1  0.00000000  0.00000000  0.53467300  1
  O  O127  1  0.85243833  0.14756167  0.57170567  1
  O  O128  1  0.66666667  0.33333333  0.61812133  1
  O  O129  1  0.51907933  0.03815867  0.65504367  1
  O  O130  1  0.96184133  0.48092067  0.65504367  1
  O  O131  1  0.85243833  0.70487667  0.57170567  1
  O  O132  1  0.14827433  0.29654867  0.61570367  1
  O  O133  1  0.70345133  0.85172567  0.61570367  1
  O  O134  1  0.00000000  0.00000000  0.65261000  1
  O  O135  1  0.14827433  0.85172567  0.61570367  1
  O  O136  1  0.81419633  0.62839267  0.69913867  1
  O  O137  1  0.66666667  0.33333333  0.73617433  1
  O  O138  1  0.81419633  0.18580367  0.69913867  1
  O  O139  1  0.33333333  0.66666667  0.70152167  1
  O  O140  1  0.18569867  0.37139733  0.73841133  1
  O  O141  1  0.62860267  0.81430133  0.73841133  1
  O  O142  1  0.85171267  0.70342533  0.82178533  1
  O  O143  1  0.03672800  0.51836400  0.78238200  1
  O  O144  1  0.37160733  0.18580367  0.69913867  1
  O  O145  1  0.33333333  0.66666667  0.81931067  1
  O  O146  1  0.48163600  0.51836400  0.78238200  1
  O  O147  1  0.14756200  0.85243800  0.86579500  1
  O  O148  1  0.85171267  0.14828733  0.82178533  1
  O  O149  1  0.00000000  0.00000000  0.78485900  1
  O  O150  1  0.18569867  0.81430133  0.73841133  1
  O  O151  1  0.29657467  0.14828733  0.82178533  1
  O  O152  1  0.96179000  0.48089500  0.90503900  1
  O  O153  1  0.14756200  0.29512400  0.86579500  1
  O  O154  1  0.70487600  0.85243800  0.86579500  1
  O  O155  1  0.48163600  0.96327200  0.78238200  1
  O  O156  1  0.00000000  0.00000000  0.90283700  1
  O  O157  1  0.18574600  0.81425400  0.98837700  1
  O  O158  1  0.66666667  0.33333333  0.86800633  1
  O  O159  1  0.51910500  0.48089500  0.90503900  1
  O  O160  1  0.33333333  0.66666667  0.95145467  1
  O  O161  1  0.18574600  0.37149200  0.98837700  1
  O  O162  1  0.62850800  0.81425400  0.98837700  1
  O  O163  1  0.51910500  0.03821000  0.90503900  1
  O  O164  1  0.81494100  0.62988200  0.94903700  1
  O  O165  1  0.37011800  0.18505900  0.94903700  1
  O  O166  1  0.66666667  0.33333333  0.98594333  1
  O  O167  1  0.81494100  0.18505900  0.94903700  1
