# generated using pymatgen
data_Mn11ZnO16
_symmetry_space_group_name_H-M   'P 1'
_cell_length_a   8.33948200
_cell_length_b   9.51306800
_cell_length_c   8.33730300
_cell_angle_alpha   90.00000000
_cell_angle_beta   90.00000000
_cell_angle_gamma   90.00000000
_symmetry_Int_Tables_number   1
_chemical_formula_structural   Mn11ZnO16
_chemical_formula_sum   'Mn22 Zn2 O32'
_cell_volume   661.43209103
_cell_formula_units_Z   2
loop_
 _symmetry_equiv_pos_site_id
 _symmetry_equiv_pos_as_xyz
  1  'x, y, z'
loop_
 _atom_site_type_symbol
 _atom_site_label
 _atom_site_symmetry_multiplicity
 _atom_site_fract_x
 _atom_site_fract_y
 _atom_site_fract_z
 _atom_site_occupancy
  Mn  Mn0  1  0.37616100  0.62424400  0.62696700  1
  Mn  Mn1  1  0.62383900  0.37575600  0.62696700  1
  Mn  Mn2  1  0.37348400  0.87541700  0.87658700  1
  Mn  Mn3  1  0.62651600  0.12458300  0.87658700  1
  Mn  Mn4  1  0.62651600  0.87541700  0.12341300  1
  Mn  Mn5  1  0.25000000  0.25000000  0.75054300  1
  Mn  Mn6  1  0.25000000  0.75000000  0.24945700  1
  Mn  Mn7  1  0.37348400  0.12458300  0.12341300  1
  Mn  Mn8  1  0.62383900  0.62424400  0.37303300  1
  Mn  Mn9  1  0.37616100  0.37575600  0.37303300  1
  Mn  Mn10  1  0.50000000  0.00000000  0.50000000  1
  Mn  Mn11  1  0.87616100  0.12424400  0.62696700  1
  Mn  Mn12  1  0.12383900  0.87575600  0.62696700  1
  Mn  Mn13  1  0.87348400  0.37541700  0.87658700  1
  Mn  Mn14  1  0.12651600  0.62458300  0.87658700  1
  Mn  Mn15  1  0.12651600  0.37541700  0.12341300  1
  Mn  Mn16  1  0.75000000  0.75000000  0.75054300  1
  Mn  Mn17  1  0.75000000  0.25000000  0.24945700  1
  Mn  Mn18  1  0.87348400  0.62458300  0.12341300  1
  Mn  Mn19  1  0.12383900  0.12424400  0.37303300  1
  Mn  Mn20  1  0.87616100  0.87575600  0.37303300  1
  Mn  Mn21  1  0.00000000  0.50000000  0.50000000  1
  Zn  Zn22  1  0.00000000  0.00000000  0.00000000  1
  Zn  Zn23  1  0.50000000  0.50000000  0.00000000  1
  O  O24  1  0.36009450  0.86683450  0.64045600  1
  O  O25  1  0.61017150  0.88341450  0.88813700  1
  O  O26  1  0.63990550  0.13316550  0.64045600  1
  O  O27  1  0.86396250  0.13027150  0.86473000  1
  O  O28  1  0.13603750  0.86972850  0.86473000  1
  O  O29  1  0.38982850  0.88341450  0.11186300  1
  O  O30  1  0.38982850  0.11658550  0.88813700  1
  O  O31  1  0.13603750  0.13027150  0.13527000  1
  O  O32  1  0.61017150  0.11658550  0.11186300  1
  O  O33  1  0.36009450  0.13316550  0.35954400  1
  O  O34  1  0.86396250  0.86972850  0.13527000  1
  O  O35  1  0.61161600  0.38298400  0.38982100  1
  O  O36  1  0.61161600  0.61701600  0.61017900  1
  O  O37  1  0.38838400  0.61701600  0.38982100  1
  O  O38  1  0.63990550  0.86683450  0.35954400  1
  O  O39  1  0.38838400  0.38298400  0.61017900  1
  O  O40  1  0.86009450  0.36683450  0.64045600  1
  O  O41  1  0.11017150  0.38341450  0.88813700  1
  O  O42  1  0.13990550  0.63316550  0.64045600  1
  O  O43  1  0.36396250  0.63027150  0.86473000  1
  O  O44  1  0.63603750  0.36972850  0.86473000  1
  O  O45  1  0.88982850  0.38341450  0.11186300  1
  O  O46  1  0.88982850  0.61658550  0.88813700  1
  O  O47  1  0.63603750  0.63027150  0.13527000  1
  O  O48  1  0.11017150  0.61658550  0.11186300  1
  O  O49  1  0.86009450  0.63316550  0.35954400  1
  O  O50  1  0.36396250  0.36972850  0.13527000  1
  O  O51  1  0.11161600  0.88298400  0.38982100  1
  O  O52  1  0.11161600  0.11701600  0.61017900  1
  O  O53  1  0.88838400  0.11701600  0.38982100  1
  O  O54  1  0.13990550  0.36683450  0.35954400  1
  O  O55  1  0.88838400  0.88298400  0.61017900  1
