# generated using pymatgen
data_La16Ni8O33
_symmetry_space_group_name_H-M   'P 1'
_cell_length_a   7.76080600
_cell_length_b   7.76080600
_cell_length_c   25.40068200
_cell_angle_alpha   90.00000000
_cell_angle_beta   90.00000000
_cell_angle_gamma   90.00000000
_symmetry_Int_Tables_number   1
_chemical_formula_structural   La16Ni8O33
_chemical_formula_sum   'La32 Ni16 O66'
_cell_volume   1529.88586508
_cell_formula_units_Z   2
loop_
 _symmetry_equiv_pos_site_id
 _symmetry_equiv_pos_as_xyz
  1  'x, y, z'
loop_
 _atom_site_type_symbol
 _atom_site_label
 _atom_site_symmetry_multiplicity
 _atom_site_fract_x
 _atom_site_fract_y
 _atom_site_fract_z
 _atom_site_occupancy
  La  La0  1  0.24970800  0.49330450  0.69315025  1
  La  La1  1  0.00678050  0.75455500  0.30607375  1
  La  La2  1  0.24544500  0.00678050  0.69392625  1
  La  La3  1  0.00102600  0.74320450  0.44467125  1
  La  La4  1  0.75029200  0.50669550  0.69315025  1
  La  La5  1  0.99897400  0.25679550  0.44467125  1
  La  La6  1  0.75455500  0.99321950  0.69392625  1
  La  La7  1  0.50987900  0.74770350  0.44707925  1
  La  La8  1  0.99321950  0.24544500  0.30607375  1
  La  La9  1  0.25229650  0.50987900  0.55292075  1
  La  La10  1  0.49330450  0.75029200  0.30684975  1
  La  La11  1  0.50669550  0.24970800  0.30684975  1
  La  La12  1  0.25679550  0.00102600  0.55532875  1
  La  La13  1  0.74770350  0.49012100  0.55292075  1
  La  La14  1  0.49012100  0.25229650  0.44707925  1
  La  La15  1  0.74320450  0.99897400  0.55532875  1
  La  La16  1  0.74970800  0.99330450  0.19315025  1
  La  La17  1  0.50678050  0.25455500  0.80607375  1
  La  La18  1  0.74544500  0.50678050  0.19392625  1
  La  La19  1  0.50102600  0.24320450  0.94467125  1
  La  La20  1  0.25029200  0.00669550  0.19315025  1
  La  La21  1  0.49897400  0.75679550  0.94467125  1
  La  La22  1  0.25455500  0.49321950  0.19392625  1
  La  La23  1  0.00987900  0.24770350  0.94707925  1
  La  La24  1  0.49321950  0.74544500  0.80607375  1
  La  La25  1  0.75229650  0.00987900  0.05292075  1
  La  La26  1  0.99330450  0.25029200  0.80684975  1
  La  La27  1  0.00669550  0.74970800  0.80684975  1
  La  La28  1  0.75679550  0.50102600  0.05532875  1
  La  La29  1  0.24770350  0.99012100  0.05292075  1
  La  La30  1  0.99012100  0.75229650  0.94707925  1
  La  La31  1  0.24320450  0.49897400  0.05532875  1
  Ni  Ni32  1  0.00096400  0.74940150  0.62410125  1
  Ni  Ni33  1  0.50035900  0.75204550  0.62582125  1
  Ni  Ni34  1  0.99903600  0.25059850  0.62410125  1
  Ni  Ni35  1  0.74940150  0.99903600  0.37589875  1
  Ni  Ni36  1  0.75204550  0.49964100  0.37417875  1
  Ni  Ni37  1  0.49964100  0.24795450  0.62582125  1
  Ni  Ni38  1  0.25059850  0.00096400  0.37589875  1
  Ni  Ni39  1  0.24795450  0.50035900  0.37417875  1
  Ni  Ni40  1  0.50096400  0.24940150  0.12410125  1
  Ni  Ni41  1  0.00035900  0.25204550  0.12582125  1
  Ni  Ni42  1  0.49903600  0.75059850  0.12410125  1
  Ni  Ni43  1  0.24940150  0.49903600  0.87589875  1
  Ni  Ni44  1  0.25204550  0.99964100  0.87417875  1
  Ni  Ni45  1  0.99964100  0.74795450  0.12582125  1
  Ni  Ni46  1  0.75059850  0.50096400  0.87589875  1
  Ni  Ni47  1  0.74795450  0.00035900  0.87417875  1
  O  O48  1  0.00000000  0.50000000  0.62751225  1
  O  O49  1  0.74926900  0.02283450  0.28582025  1
  O  O50  1  0.74967750  0.74959600  0.37001575  1
  O  O51  1  0.00000000  0.00000000  0.62761125  1
  O  O52  1  0.00000000  0.00000000  0.37238875  1
  O  O53  1  0.50000000  0.50000000  0.62138725  1
  O  O54  1  0.47641650  0.26102400  0.71420075  1
  O  O55  1  0.73897600  0.47641650  0.28579925  1
  O  O56  1  0.02349200  0.75009650  0.53746925  1
  O  O57  1  0.25073100  0.97716550  0.28582025  1
  O  O58  1  0.00000000  0.50000000  0.36416925  1
  O  O59  1  0.50000000  0.00000000  0.63583075  1
  O  O60  1  0.25282800  0.75095550  0.37930725  1
  O  O61  1  0.50000000  0.00000000  0.37248775  1
  O  O62  1  0.74959600  0.25032250  0.62998425  1
  O  O63  1  0.25040400  0.74967750  0.62998425  1
  O  O64  1  0.97650800  0.24990350  0.53746925  1
  O  O65  1  0.26102400  0.52358350  0.28579925  1
  O  O66  1  0.48639750  0.80667100  0.54029475  1
  O  O67  1  0.52358350  0.73897600  0.71420075  1
  O  O68  1  0.19332900  0.48639750  0.45970525  1
  O  O69  1  0.02283450  0.25073100  0.71417975  1
  O  O70  1  0.50000000  0.50000000  0.37861275  1
  O  O71  1  0.25032250  0.25040400  0.37001575  1
  O  O72  1  0.50000000  0.50000000  0.50000000  1
  O  O73  1  0.75095550  0.74717200  0.62069275  1
  O  O74  1  0.24904450  0.25282800  0.62069275  1
  O  O75  1  0.24990350  0.02349200  0.46253075  1
  O  O76  1  0.97716550  0.74926900  0.71417975  1
  O  O77  1  0.80667100  0.51360250  0.45970525  1
  O  O78  1  0.51360250  0.19332900  0.54029475  1
  O  O79  1  0.74717200  0.24904450  0.37930725  1
  O  O80  1  0.75009650  0.97650800  0.46253075  1
  O  O81  1  0.50000000  0.00000000  0.12751225  1
  O  O82  1  0.24926900  0.52283450  0.78582025  1
  O  O83  1  0.24967750  0.24959600  0.87001575  1
  O  O84  1  0.50000000  0.50000000  0.12761125  1
  O  O85  1  0.50000000  0.50000000  0.87238875  1
  O  O86  1  0.00000000  0.00000000  0.12138725  1
  O  O87  1  0.97641650  0.76102400  0.21420075  1
  O  O88  1  0.23897600  0.97641650  0.78579925  1
  O  O89  1  0.52349200  0.25009650  0.03746925  1
  O  O90  1  0.75073100  0.47716550  0.78582025  1
  O  O91  1  0.50000000  0.00000000  0.86416925  1
  O  O92  1  0.00000000  0.50000000  0.13583075  1
  O  O93  1  0.75282800  0.25095550  0.87930725  1
  O  O94  1  0.00000000  0.50000000  0.87248775  1
  O  O95  1  0.24959600  0.75032250  0.12998425  1
  O  O96  1  0.75040400  0.24967750  0.12998425  1
  O  O97  1  0.47650800  0.74990350  0.03746925  1
  O  O98  1  0.76102400  0.02358350  0.78579925  1
  O  O99  1  0.98639750  0.30667100  0.04029475  1
  O  O100  1  0.02358350  0.23897600  0.21420075  1
  O  O101  1  0.69332900  0.98639750  0.95970525  1
  O  O102  1  0.52283450  0.75073100  0.21417975  1
  O  O103  1  0.00000000  0.00000000  0.87861275  1
  O  O104  1  0.75032250  0.75040400  0.87001575  1
  O  O105  1  0.00000000  0.00000000  0.00000000  1
  O  O106  1  0.25095550  0.24717200  0.12069275  1
  O  O107  1  0.74904450  0.75282800  0.12069275  1
  O  O108  1  0.74990350  0.52349200  0.96253075  1
  O  O109  1  0.47716550  0.24926900  0.21417975  1
  O  O110  1  0.30667100  0.01360250  0.95970525  1
  O  O111  1  0.01360250  0.69332900  0.04029475  1
  O  O112  1  0.24717200  0.74904450  0.87930725  1
  O  O113  1  0.25009650  0.47650800  0.96253075  1
