# generated using pymatgen
data_Na3(CoO2)2
_symmetry_space_group_name_H-M   'P 1'
_cell_length_a   5.74473200
_cell_length_b   8.10299200
_cell_length_c   10.53434900
_cell_angle_alpha   90.00000000
_cell_angle_beta   90.00000000
_cell_angle_gamma   90.00000000
_symmetry_Int_Tables_number   1
_chemical_formula_structural   Na3(CoO2)2
_chemical_formula_sum   'Na12 Co8 O16'
_cell_volume   490.36886247
_cell_formula_units_Z   4
loop_
 _symmetry_equiv_pos_site_id
 _symmetry_equiv_pos_as_xyz
  1  'x, y, z'
loop_
 _atom_site_type_symbol
 _atom_site_label
 _atom_site_symmetry_multiplicity
 _atom_site_fract_x
 _atom_site_fract_y
 _atom_site_fract_z
 _atom_site_occupancy
  Na  Na0  1  0.50000000  0.85385800  0.06154800  1
  Na  Na1  1  0.50000000  0.85385800  0.43845200  1
  Na  Na2  1  0.50000000  0.14614200  0.56154800  1
  Na  Na3  1  0.50000000  0.18372900  0.25000000  1
  Na  Na4  1  0.50000000  0.81627100  0.75000000  1
  Na  Na5  1  0.50000000  0.14614200  0.93845200  1
  Na  Na6  1  0.00000000  0.35385800  0.06154800  1
  Na  Na7  1  0.00000000  0.35385800  0.43845200  1
  Na  Na8  1  0.00000000  0.64614200  0.56154800  1
  Na  Na9  1  0.00000000  0.68372900  0.25000000  1
  Na  Na10  1  0.00000000  0.31627100  0.75000000  1
  Na  Na11  1  0.00000000  0.64614200  0.93845200  1
  Co  Co12  1  0.00000000  0.00000000  0.00000000  1
  Co  Co13  1  0.50000000  0.56776200  0.25000000  1
  Co  Co14  1  0.00000000  0.00000000  0.50000000  1
  Co  Co15  1  0.50000000  0.43223800  0.75000000  1
  Co  Co16  1  0.50000000  0.50000000  0.00000000  1
  Co  Co17  1  0.00000000  0.06776200  0.25000000  1
  Co  Co18  1  0.50000000  0.50000000  0.50000000  1
  Co  Co19  1  0.00000000  0.93223800  0.75000000  1
  O  O20  1  0.22129150  0.08123450  0.11413300  1
  O  O21  1  0.22129150  0.08123450  0.38586700  1
  O  O22  1  0.22129150  0.91876550  0.88586700  1
  O  O23  1  0.22129150  0.91876550  0.61413300  1
  O  O24  1  0.77870850  0.08123450  0.38586700  1
  O  O25  1  0.77870850  0.08123450  0.11413300  1
  O  O26  1  0.77870850  0.91876550  0.61413300  1
  O  O27  1  0.77870850  0.91876550  0.88586700  1
  O  O28  1  0.72129150  0.58123450  0.11413300  1
  O  O29  1  0.72129150  0.58123450  0.38586700  1
  O  O30  1  0.72129150  0.41876550  0.88586700  1
  O  O31  1  0.72129150  0.41876550  0.61413300  1
  O  O32  1  0.27870850  0.58123450  0.38586700  1
  O  O33  1  0.27870850  0.58123450  0.11413300  1
  O  O34  1  0.27870850  0.41876550  0.61413300  1
  O  O35  1  0.27870850  0.41876550  0.88586700  1
