# generated using pymatgen
data_LiNi(PO3)4
_symmetry_space_group_name_H-M   'P 1'
_cell_length_a   16.22836000
_cell_length_b   7.37596000
_cell_length_c   9.55714149
_cell_angle_alpha   90.00000000
_cell_angle_beta   125.41720369
_cell_angle_gamma   90.00000000
_symmetry_Int_Tables_number   1
_chemical_formula_structural   LiNi(PO3)4
_chemical_formula_sum   'Li4 Ni4 P16 O48'
_cell_volume   932.29682128
_cell_formula_units_Z   4
loop_
 _symmetry_equiv_pos_site_id
 _symmetry_equiv_pos_as_xyz
  1  'x, y, z'
loop_
 _atom_site_type_symbol
 _atom_site_label
 _atom_site_symmetry_multiplicity
 _atom_site_fract_x
 _atom_site_fract_y
 _atom_site_fract_z
 _atom_site_occupancy
  Li  Li0  1  0.00000000  0.70195200  0.25000000  1
  Li  Li1  1  0.00000000  0.29804800  0.75000000  1
  Li  Li2  1  0.50000000  0.20195200  0.25000000  1
  Li  Li3  1  0.50000000  0.79804800  0.75000000  1
  Ni  Ni4  1  0.00000000  0.12251600  0.25000000  1
  Ni  Ni5  1  0.00000000  0.87748400  0.75000000  1
  Ni  Ni6  1  0.50000000  0.62251600  0.25000000  1
  Ni  Ni7  1  0.50000000  0.37748400  0.75000000  1
  P  P8  1  0.13877250  0.16499350  0.67608700  1
  P  P9  1  0.35991200  0.06583800  0.86429000  1
  P  P10  1  0.14008800  0.56583800  0.63571000  1
  P  P11  1  0.36122750  0.66499350  0.82391300  1
  P  P12  1  0.63877250  0.33500650  0.17608700  1
  P  P13  1  0.85991200  0.43416200  0.36429000  1
  P  P14  1  0.64008800  0.93416200  0.13571000  1
  P  P15  1  0.86122750  0.83500650  0.32391300  1
  P  P16  1  0.63877250  0.66499350  0.67608700  1
  P  P17  1  0.85991200  0.56583800  0.86429000  1
  P  P18  1  0.64008800  0.06583800  0.63571000  1
  P  P19  1  0.86122750  0.16499350  0.82391300  1
  P  P20  1  0.13877250  0.83500650  0.17608700  1
  P  P21  1  0.35991200  0.93416200  0.36429000  1
  P  P22  1  0.14008800  0.43416200  0.13571000  1
  P  P23  1  0.36122750  0.33500650  0.32391300  1
  O  O24  1  0.24896600  0.08980200  0.82121800  1
  O  O25  1  0.38566600  0.63673400  0.99907300  1
  O  O26  1  0.15289100  0.37737700  0.72970200  1
  O  O27  1  0.11425550  0.71401850  0.71322300  1
  O  O28  1  0.38574450  0.21401850  0.78677700  1
  O  O29  1  0.34710900  0.87737700  0.77029800  1
  O  O30  1  0.11433400  0.13673400  0.50092700  1
  O  O31  1  0.25103400  0.58980200  0.67878200  1
  O  O32  1  0.06864500  0.54645000  0.44450800  1
  O  O33  1  0.06864500  0.45355000  0.94450800  1
  O  O34  1  0.93198150  0.90335350  0.28233800  1
  O  O35  1  0.93198150  0.09664650  0.78233800  1
  O  O36  1  0.06801850  0.90335350  0.21766200  1
  O  O37  1  0.06801850  0.09664650  0.71766200  1
  O  O38  1  0.93135500  0.54645000  0.05549200  1
  O  O39  1  0.93135500  0.45355000  0.55549200  1
  O  O40  1  0.74896600  0.41019800  0.32121800  1
  O  O41  1  0.88566600  0.86326600  0.49907300  1
  O  O42  1  0.65289100  0.12262300  0.22970200  1
  O  O43  1  0.61425550  0.78598150  0.21322300  1
  O  O44  1  0.88574450  0.28598150  0.28677700  1
  O  O45  1  0.84710900  0.62262300  0.27029800  1
  O  O46  1  0.61433400  0.36326600  0.00092700  1
  O  O47  1  0.75103400  0.91019800  0.17878200  1
  O  O48  1  0.74896600  0.58980200  0.82121800  1
  O  O49  1  0.88566600  0.13673400  0.99907300  1
  O  O50  1  0.65289100  0.87737700  0.72970200  1
  O  O51  1  0.61425550  0.21401850  0.71322300  1
  O  O52  1  0.88574450  0.71401850  0.78677700  1
  O  O53  1  0.84710900  0.37737700  0.77029800  1
  O  O54  1  0.61433400  0.63673400  0.50092700  1
  O  O55  1  0.75103400  0.08980200  0.67878200  1
  O  O56  1  0.56864500  0.04645000  0.44450800  1
  O  O57  1  0.56864500  0.95355000  0.94450800  1
  O  O58  1  0.43198150  0.40335350  0.28233800  1
  O  O59  1  0.43198150  0.59664650  0.78233800  1
  O  O60  1  0.56801850  0.40335350  0.21766200  1
  O  O61  1  0.56801850  0.59664650  0.71766200  1
  O  O62  1  0.43135500  0.04645000  0.05549200  1
  O  O63  1  0.43135500  0.95355000  0.55549200  1
  O  O64  1  0.24896600  0.91019800  0.32121800  1
  O  O65  1  0.38566600  0.36326600  0.49907300  1
  O  O66  1  0.15289100  0.62262300  0.22970200  1
  O  O67  1  0.11425550  0.28598150  0.21322300  1
  O  O68  1  0.38574450  0.78598150  0.28677700  1
  O  O69  1  0.34710900  0.12262300  0.27029800  1
  O  O70  1  0.11433400  0.86326600  0.00092700  1
  O  O71  1  0.25103400  0.41019800  0.17878200  1
