# generated using pymatgen
data_Cr(PO3)2
_symmetry_space_group_name_H-M   'P 1'
_cell_length_a   10.24925438
_cell_length_b   9.28856937
_cell_length_c   5.01532936
_cell_angle_alpha   90.00000000
_cell_angle_beta   109.03507484
_cell_angle_gamma   90.00000000
_symmetry_Int_Tables_number   1
_chemical_formula_structural   Cr(PO3)2
_chemical_formula_sum   'Cr4 P8 O24'
_cell_volume   451.35576064
_cell_formula_units_Z   4
loop_
 _symmetry_equiv_pos_site_id
 _symmetry_equiv_pos_as_xyz
  1  'x, y, z'
loop_
 _atom_site_type_symbol
 _atom_site_label
 _atom_site_symmetry_multiplicity
 _atom_site_fract_x
 _atom_site_fract_y
 _atom_site_fract_z
 _atom_site_occupancy
  Cr  Cr0  1  0.00000000  0.11274000  0.25000000  1
  Cr  Cr1  1  0.00000000  0.88726000  0.75000000  1
  Cr  Cr2  1  0.50000000  0.61274000  0.25000000  1
  Cr  Cr3  1  0.50000000  0.38726000  0.75000000  1
  P  P4  1  0.21321225  0.41044425  0.23851000  1
  P  P5  1  0.21321225  0.58955575  0.73851000  1
  P  P6  1  0.78678775  0.41044425  0.26149000  1
  P  P7  1  0.78678775  0.58955575  0.76149000  1
  P  P8  1  0.71321225  0.91044425  0.23851000  1
  P  P9  1  0.71321225  0.08955575  0.73851000  1
  P  P10  1  0.28678775  0.91044425  0.26149000  1
  P  P11  1  0.28678775  0.08955575  0.76149000  1
  O  O12  1  0.37018925  0.42329725  0.34203800  1
  O  O13  1  0.37018925  0.57670275  0.84203800  1
  O  O14  1  0.62981075  0.42329725  0.15796200  1
  O  O15  1  0.62981075  0.57670275  0.65796200  1
  O  O16  1  0.14868425  0.26530625  0.18669400  1
  O  O17  1  0.14868425  0.73469375  0.68669400  1
  O  O18  1  0.85131575  0.26530625  0.31330600  1
  O  O19  1  0.85131575  0.73469375  0.81330600  1
  O  O20  1  0.15354125  0.49454925  0.45657750  1
  O  O21  1  0.15354125  0.50545075  0.95657750  1
  O  O22  1  0.84645875  0.49454925  0.04342250  1
  O  O23  1  0.84645875  0.50545075  0.54342250  1
  O  O24  1  0.87018925  0.92329725  0.34203800  1
  O  O25  1  0.87018925  0.07670275  0.84203800  1
  O  O26  1  0.12981075  0.92329725  0.15796200  1
  O  O27  1  0.12981075  0.07670275  0.65796200  1
  O  O28  1  0.64868425  0.76530625  0.18669400  1
  O  O29  1  0.64868425  0.23469375  0.68669400  1
  O  O30  1  0.35131575  0.76530625  0.31330600  1
  O  O31  1  0.35131575  0.23469375  0.81330600  1
  O  O32  1  0.65354125  0.99454925  0.45657750  1
  O  O33  1  0.65354125  0.00545075  0.95657750  1
  O  O34  1  0.34645875  0.99454925  0.04342250  1
  O  O35  1  0.34645875  0.00545075  0.54342250  1
