# generated using pymatgen
data_Ti3Co2Ni(PO4)6
_symmetry_space_group_name_H-M   'P 1'
_cell_length_a   8.63731842
_cell_length_b   8.63731842
_cell_length_c   20.67107686
_cell_angle_alpha   90.00000000
_cell_angle_beta   90.00000000
_cell_angle_gamma   120.00000000
_symmetry_Int_Tables_number   1
_chemical_formula_structural   Ti3Co2Ni(PO4)6
_chemical_formula_sum   'Ti9 Co6 Ni3 P18 O72'
_cell_volume   1335.52368385
_cell_formula_units_Z   3
loop_
 _symmetry_equiv_pos_site_id
 _symmetry_equiv_pos_as_xyz
  1  'x, y, z'
loop_
 _atom_site_type_symbol
 _atom_site_label
 _atom_site_symmetry_multiplicity
 _atom_site_fract_x
 _atom_site_fract_y
 _atom_site_fract_z
 _atom_site_occupancy
  Ti  Ti0  1  0.33333333  0.66666667  0.52430267  1
  Ti  Ti1  1  0.33333333  0.66666667  0.31071767  1
  Ti  Ti2  1  0.33333333  0.66666667  0.02173267  1
  Ti  Ti3  1  0.00000000  0.00000000  0.85763600  1
  Ti  Ti4  1  0.00000000  0.00000000  0.64405100  1
  Ti  Ti5  1  0.00000000  0.00000000  0.35506600  1
  Ti  Ti6  1  0.66666667  0.33333333  0.19096933  1
  Ti  Ti7  1  0.66666667  0.33333333  0.97738433  1
  Ti  Ti8  1  0.66666667  0.33333333  0.68839933  1
  Co  Co9  1  0.33333333  0.66666667  0.66973967  1
  Co  Co10  1  0.33333333  0.66666667  0.16760467  1
  Co  Co11  1  0.00000000  0.00000000  0.00307300  1
  Co  Co12  1  0.00000000  0.00000000  0.50093800  1
  Co  Co13  1  0.66666667  0.33333333  0.33640633  1
  Co  Co14  1  0.66666667  0.33333333  0.83427133  1
  Ni  Ni15  1  0.33333333  0.66666667  0.80900567  1
  Ni  Ni16  1  0.00000000  0.00000000  0.14233900  1
  Ni  Ni17  1  0.66666667  0.33333333  0.47567233  1
  P  P18  1  0.70636500  0.70548700  0.24831100  1
  P  P19  1  0.29451300  0.00087800  0.24831100  1
  P  P20  1  0.66687233  0.03826467  0.08345767  1
  P  P21  1  0.37139233  0.33312767  0.08345767  1
  P  P22  1  0.96173533  0.62860767  0.08345767  1
  P  P23  1  0.99912200  0.29363500  0.24831100  1
  P  P24  1  0.37303167  0.03882033  0.58164433  1
  P  P25  1  0.96117967  0.33421133  0.58164433  1
  P  P26  1  0.33353900  0.37159800  0.41679100  1
  P  P27  1  0.03805900  0.66646100  0.41679100  1
  P  P28  1  0.62840200  0.96194100  0.41679100  1
  P  P29  1  0.66578867  0.62696833  0.58164433  1
  P  P30  1  0.03969833  0.37215367  0.91497767  1
  P  P31  1  0.62784633  0.66754467  0.91497767  1
  P  P32  1  0.00020567  0.70493133  0.75012433  1
  P  P33  1  0.70472567  0.99979433  0.75012433  1
  P  P34  1  0.29506867  0.29527433  0.75012433  1
  P  P35  1  0.33245533  0.96030167  0.91497767  1
  O  O36  1  0.52884033  0.84704667  0.35705967  1
  O  O37  1  0.31820633  0.47115967  0.35705967  1
  O  O38  1  0.68335133  0.51463067  0.25852967  1
  O  O39  1  0.15295333  0.68179367  0.35705967  1
  O  O40  1  0.79945567  0.79656933  0.18733533  1
  O  O41  1  0.51269267  0.67814233  0.24553733  1
  O  O42  1  0.48536933  0.16872067  0.25852967  1
  O  O43  1  0.32185767  0.83455033  0.24553733  1
  O  O44  1  0.33877833  0.47984667  0.47756467  1
  O  O45  1  0.16544967  0.48730733  0.24553733  1
  O  O46  1  0.83231667  0.01965333  0.07325933  1
  O  O47  1  0.14106833  0.66122167  0.47756467  1
  O  O48  1  0.20343067  0.00288633  0.18733533  1
  O  O49  1  0.83127933  0.31664867  0.25852967  1
  O  O50  1  0.49604300  0.85085000  0.09115900  1
  O  O51  1  0.99711367  0.20054433  0.18733533  1
  O  O52  1  0.35480700  0.50395700  0.09115900  1
  O  O53  1  0.18733667  0.16768333  0.07325933  1
  O  O54  1  0.14915000  0.64519300  0.09115900  1
  O  O55  1  0.52015333  0.85893167  0.47756467  1
  O  O56  1  0.52066833  0.66313867  0.97675267  1
  O  O57  1  0.98034667  0.81266333  0.07325933  1
  O  O58  1  0.33686133  0.85752967  0.97675267  1
  O  O59  1  0.14247033  0.47933167  0.97675267  1
  O  O60  1  0.19550700  0.18038000  0.69039300  1
  O  O61  1  0.98487300  0.80449300  0.69039300  1
  O  O62  1  0.35001800  0.84796400  0.59186300  1
  O  O63  1  0.81962000  0.01512700  0.69039300  1
  O  O64  1  0.46612233  0.12990267  0.52066867  1
  O  O65  1  0.17935933  0.01147567  0.57887067  1
  O  O66  1  0.15203600  0.50205400  0.59186300  1
  O  O67  1  0.98852433  0.16788367  0.57887067  1
  O  O68  1  0.00544500  0.81318000  0.81089800  1
  O  O69  1  0.83211633  0.82064067  0.57887067  1
  O  O70  1  0.49898333  0.35298667  0.40659267  1
  O  O71  1  0.80773500  0.99455500  0.81089800  1
  O  O72  1  0.87009733  0.33621967  0.52066867  1
  O  O73  1  0.49794600  0.64998200  0.59186300  1
  O  O74  1  0.16270967  0.18418333  0.42449233  1
  O  O75  1  0.66378033  0.53387767  0.52066867  1
  O  O76  1  0.02147367  0.83729033  0.42449233  1
  O  O77  1  0.85400333  0.50101667  0.40659267  1
  O  O78  1  0.81581667  0.97852633  0.42449233  1
  O  O79  1  0.18682000  0.19226500  0.81089800  1
  O  O80  1  0.18733500  0.99647200  0.31008600  1
  O  O81  1  0.64701333  0.14599667  0.40659267  1
  O  O82  1  0.00352800  0.19086300  0.31008600  1
  O  O83  1  0.80913700  0.81266500  0.31008600  1
  O  O84  1  0.86217367  0.51371333  0.02372633  1
  O  O85  1  0.65153967  0.13782633  0.02372633  1
  O  O86  1  0.01668467  0.18129733  0.92519633  1
  O  O87  1  0.48628667  0.34846033  0.02372633  1
  O  O88  1  0.13278900  0.46323600  0.85400200  1
  O  O89  1  0.84602600  0.34480900  0.91220400  1
  O  O90  1  0.81870267  0.83538733  0.92519633  1
  O  O91  1  0.65519100  0.50121700  0.91220400  1
  O  O92  1  0.67211167  0.14651333  0.14423133  1
  O  O93  1  0.49878300  0.15397400  0.91220400  1
  O  O94  1  0.16565000  0.68632000  0.73992600  1
  O  O95  1  0.47440167  0.32788833  0.14423133  1
  O  O96  1  0.53676400  0.66955300  0.85400200  1
  O  O97  1  0.16461267  0.98331533  0.92519633  1
  O  O98  1  0.82937633  0.51751667  0.75782567  1
  O  O99  1  0.33044700  0.86721100  0.85400200  1
  O  O100  1  0.68814033  0.17062367  0.75782567  1
  O  O101  1  0.52067000  0.83435000  0.73992600  1
  O  O102  1  0.48248333  0.31185967  0.75782567  1
  O  O103  1  0.85348667  0.52559833  0.14423133  1
  O  O104  1  0.85400167  0.32980533  0.64341933  1
  O  O105  1  0.31368000  0.47933000  0.73992600  1
  O  O106  1  0.67019467  0.52419633  0.64341933  1
  O  O107  1  0.47580367  0.14599833  0.64341933  1
