# generated using pymatgen
data_Li3Ni2OF5
_symmetry_space_group_name_H-M   'P 1'
_cell_length_a   5.90492800
_cell_length_b   8.35474200
_cell_length_c   17.56933200
_cell_angle_alpha   90.00000000
_cell_angle_beta   90.00000000
_cell_angle_gamma   90.00000000
_symmetry_Int_Tables_number   1
_chemical_formula_structural   Li3Ni2OF5
_chemical_formula_sum   'Li24 Ni16 O8 F40'
_cell_volume   866.76805974
_cell_formula_units_Z   8
loop_
 _symmetry_equiv_pos_site_id
 _symmetry_equiv_pos_as_xyz
  1  'x, y, z'
loop_
 _atom_site_type_symbol
 _atom_site_label
 _atom_site_symmetry_multiplicity
 _atom_site_fract_x
 _atom_site_fract_y
 _atom_site_fract_z
 _atom_site_occupancy
  Li  Li0  1  0.75000000  0.25000000  0.07315800  1
  Li  Li1  1  0.00000000  0.00000000  0.17028900  1
  Li  Li2  1  0.75000000  0.25000000  0.42684200  1
  Li  Li3  1  0.50000000  0.00000000  0.00000000  1
  Li  Li4  1  0.50000000  0.00000000  0.32971100  1
  Li  Li5  1  0.75000000  0.75000000  0.25000000  1
  Li  Li6  1  0.75000000  0.75000000  0.57315800  1
  Li  Li7  1  0.00000000  0.50000000  0.67028900  1
  Li  Li8  1  0.75000000  0.75000000  0.92684200  1
  Li  Li9  1  0.50000000  0.50000000  0.50000000  1
  Li  Li10  1  0.50000000  0.50000000  0.82971100  1
  Li  Li11  1  0.75000000  0.25000000  0.75000000  1
  Li  Li12  1  0.25000000  0.25000000  0.57315800  1
  Li  Li13  1  0.50000000  0.00000000  0.67028900  1
  Li  Li14  1  0.25000000  0.25000000  0.92684200  1
  Li  Li15  1  0.00000000  0.00000000  0.50000000  1
  Li  Li16  1  0.00000000  0.00000000  0.82971100  1
  Li  Li17  1  0.25000000  0.75000000  0.75000000  1
  Li  Li18  1  0.25000000  0.75000000  0.07315800  1
  Li  Li19  1  0.50000000  0.50000000  0.17028900  1
  Li  Li20  1  0.25000000  0.75000000  0.42684200  1
  Li  Li21  1  0.00000000  0.50000000  0.00000000  1
  Li  Li22  1  0.00000000  0.50000000  0.32971100  1
  Li  Li23  1  0.25000000  0.25000000  0.25000000  1
  Ni  Ni24  1  0.50000000  0.00000000  0.17188800  1
  Ni  Ni25  1  0.00000000  0.00000000  0.00000000  1
  Ni  Ni26  1  0.00000000  0.00000000  0.32811200  1
  Ni  Ni27  1  0.75000000  0.25000000  0.25000000  1
  Ni  Ni28  1  0.50000000  0.50000000  0.67188800  1
  Ni  Ni29  1  0.00000000  0.50000000  0.50000000  1
  Ni  Ni30  1  0.00000000  0.50000000  0.82811200  1
  Ni  Ni31  1  0.75000000  0.75000000  0.75000000  1
  Ni  Ni32  1  0.00000000  0.00000000  0.67188800  1
  Ni  Ni33  1  0.50000000  0.00000000  0.50000000  1
  Ni  Ni34  1  0.50000000  0.00000000  0.82811200  1
  Ni  Ni35  1  0.25000000  0.25000000  0.75000000  1
  Ni  Ni36  1  0.00000000  0.50000000  0.17188800  1
  Ni  Ni37  1  0.50000000  0.50000000  0.00000000  1
  Ni  Ni38  1  0.50000000  0.50000000  0.32811200  1
  Ni  Ni39  1  0.25000000  0.75000000  0.25000000  1
  O  O40  1  0.75000000  0.49141900  0.25000000  1
  O  O41  1  0.75000000  0.00858100  0.25000000  1
  O  O42  1  0.75000000  0.99141900  0.75000000  1
  O  O43  1  0.75000000  0.50858100  0.75000000  1
  O  O44  1  0.25000000  0.49141900  0.75000000  1
  O  O45  1  0.25000000  0.00858100  0.75000000  1
  O  O46  1  0.25000000  0.99141900  0.25000000  1
  O  O47  1  0.25000000  0.50858100  0.25000000  1
  F  F48  1  0.74676850  0.01577200  0.08104250  1
  F  F49  1  0.50347500  0.24674200  0.16720800  1
  F  F50  1  0.49652500  0.75325800  0.16720800  1
  F  F51  1  0.75323150  0.01577200  0.41895750  1
  F  F52  1  0.50000000  0.73626100  0.00000000  1
  F  F53  1  0.25323150  0.98422800  0.08104250  1
  F  F54  1  0.24676850  0.98422800  0.41895750  1
  F  F55  1  0.50000000  0.26373900  0.00000000  1
  F  F56  1  0.99652500  0.24674200  0.33279200  1
  F  F57  1  0.00347500  0.75325800  0.33279200  1
  F  F58  1  0.74676850  0.51577200  0.58104250  1
  F  F59  1  0.50347500  0.74674200  0.66720800  1
  F  F60  1  0.49652500  0.25325800  0.66720800  1
  F  F61  1  0.75323150  0.51577200  0.91895750  1
  F  F62  1  0.50000000  0.23626100  0.50000000  1
  F  F63  1  0.25323150  0.48422800  0.58104250  1
  F  F64  1  0.24676850  0.48422800  0.91895750  1
  F  F65  1  0.50000000  0.76373900  0.50000000  1
  F  F66  1  0.99652500  0.74674200  0.83279200  1
  F  F67  1  0.00347500  0.25325800  0.83279200  1
  F  F68  1  0.24676850  0.01577200  0.58104250  1
  F  F69  1  0.00347500  0.24674200  0.66720800  1
  F  F70  1  0.99652500  0.75325800  0.66720800  1
  F  F71  1  0.25323150  0.01577200  0.91895750  1
  F  F72  1  0.00000000  0.73626100  0.50000000  1
  F  F73  1  0.75323150  0.98422800  0.58104250  1
  F  F74  1  0.74676850  0.98422800  0.91895750  1
  F  F75  1  0.00000000  0.26373900  0.50000000  1
  F  F76  1  0.49652500  0.24674200  0.83279200  1
  F  F77  1  0.50347500  0.75325800  0.83279200  1
  F  F78  1  0.24676850  0.51577200  0.08104250  1
  F  F79  1  0.00347500  0.74674200  0.16720800  1
  F  F80  1  0.99652500  0.25325800  0.16720800  1
  F  F81  1  0.25323150  0.51577200  0.41895750  1
  F  F82  1  0.00000000  0.23626100  0.00000000  1
  F  F83  1  0.75323150  0.48422800  0.08104250  1
  F  F84  1  0.74676850  0.48422800  0.41895750  1
  F  F85  1  0.00000000  0.76373900  0.00000000  1
  F  F86  1  0.49652500  0.74674200  0.33279200  1
  F  F87  1  0.50347500  0.25325800  0.33279200  1
