# generated using pymatgen
data_MnOF
_symmetry_space_group_name_H-M   'P 1'
_cell_length_a   6.55469600
_cell_length_b   6.58192800
_cell_length_c   12.68302000
_cell_angle_alpha   90.00000000
_cell_angle_beta   90.00000000
_cell_angle_gamma   90.00000000
_symmetry_Int_Tables_number   1
_chemical_formula_structural   MnOF
_chemical_formula_sum   'Mn16 O16 F16'
_cell_volume   547.17766132
_cell_formula_units_Z   16
loop_
 _symmetry_equiv_pos_site_id
 _symmetry_equiv_pos_as_xyz
  1  'x, y, z'
loop_
 _atom_site_type_symbol
 _atom_site_label
 _atom_site_symmetry_multiplicity
 _atom_site_fract_x
 _atom_site_fract_y
 _atom_site_fract_z
 _atom_site_occupancy
  Mn  Mn0  1  0.97134100  0.00000000  0.00000000  1
  Mn  Mn1  1  0.03003500  0.00871400  0.25000000  1
  Mn  Mn2  1  0.97134100  0.00000000  0.50000000  1
  Mn  Mn3  1  0.03003500  0.99128600  0.75000000  1
  Mn  Mn4  1  0.49882850  0.02584150  0.62457700  1
  Mn  Mn5  1  0.49882850  0.97415850  0.12457700  1
  Mn  Mn6  1  0.49882850  0.97415850  0.37542300  1
  Mn  Mn7  1  0.49882850  0.02584150  0.87542300  1
  Mn  Mn8  1  0.47134100  0.50000000  0.00000000  1
  Mn  Mn9  1  0.53003500  0.50871400  0.25000000  1
  Mn  Mn10  1  0.47134100  0.50000000  0.50000000  1
  Mn  Mn11  1  0.53003500  0.49128600  0.75000000  1
  Mn  Mn12  1  0.99882850  0.52584150  0.62457700  1
  Mn  Mn13  1  0.99882850  0.47415850  0.12457700  1
  Mn  Mn14  1  0.99882850  0.47415850  0.37542300  1
  Mn  Mn15  1  0.99882850  0.52584150  0.87542300  1
  O  O16  1  0.49889200  0.31887700  0.62248200  1
  O  O17  1  0.49889200  0.31887700  0.87751800  1
  O  O18  1  0.31821800  0.98427800  0.25000000  1
  O  O19  1  0.31821800  0.01572200  0.75000000  1
  O  O20  1  0.67508500  0.00000000  0.00000000  1
  O  O21  1  0.67508500  0.00000000  0.50000000  1
  O  O22  1  0.49889200  0.68112300  0.12248200  1
  O  O23  1  0.49889200  0.68112300  0.37751800  1
  O  O24  1  0.99889200  0.81887700  0.62248200  1
  O  O25  1  0.99889200  0.81887700  0.87751800  1
  O  O26  1  0.81821800  0.48427800  0.25000000  1
  O  O27  1  0.81821800  0.51572200  0.75000000  1
  O  O28  1  0.17508500  0.50000000  0.00000000  1
  O  O29  1  0.17508500  0.50000000  0.50000000  1
  O  O30  1  0.99889200  0.18112300  0.12248200  1
  O  O31  1  0.99889200  0.18112300  0.37751800  1
  F  F32  1  0.50367200  0.28091800  0.13138400  1
  F  F33  1  0.50367200  0.28091800  0.36861600  1
  F  F34  1  0.27559600  0.00000000  0.00000000  1
  F  F35  1  0.27559600  0.00000000  0.50000000  1
  F  F36  1  0.72694000  0.98534200  0.25000000  1
  F  F37  1  0.72694000  0.01465800  0.75000000  1
  F  F38  1  0.50367200  0.71908200  0.63138400  1
  F  F39  1  0.50367200  0.71908200  0.86861600  1
  F  F40  1  0.00367200  0.78091800  0.13138400  1
  F  F41  1  0.00367200  0.78091800  0.36861600  1
  F  F42  1  0.77559600  0.50000000  0.00000000  1
  F  F43  1  0.77559600  0.50000000  0.50000000  1
  F  F44  1  0.22694000  0.48534200  0.25000000  1
  F  F45  1  0.22694000  0.51465800  0.75000000  1
  F  F46  1  0.00367200  0.21908200  0.63138400  1
  F  F47  1  0.00367200  0.21908200  0.86861600  1
