# generated using pymatgen
data_Li7Fe(O2F)2
_symmetry_space_group_name_H-M   'P 1'
_cell_length_a   5.52704745
_cell_length_b   5.89510386
_cell_length_c   9.94473096
_cell_angle_alpha   105.44390191
_cell_angle_beta   88.29325451
_cell_angle_gamma   117.46102566
_symmetry_Int_Tables_number   1
_chemical_formula_structural   Li7Fe(O2F)2
_chemical_formula_sum   'Li14 Fe2 O8 F4'
_cell_volume   275.48936201
_cell_formula_units_Z   2
loop_
 _symmetry_equiv_pos_site_id
 _symmetry_equiv_pos_as_xyz
  1  'x, y, z'
loop_
 _atom_site_type_symbol
 _atom_site_label
 _atom_site_symmetry_multiplicity
 _atom_site_fract_x
 _atom_site_fract_y
 _atom_site_fract_z
 _atom_site_occupancy
  Li  Li0  1  0.02424793  0.92816408  0.77327098  1
  Li  Li1  1  0.49676301  0.39525909  0.24855538  1
  Li  Li2  1  0.53499525  0.05689795  0.61797219  1
  Li  Li3  1  0.96801888  0.44217481  0.88094024  1
  Li  Li4  1  0.02357130  0.73839826  0.55780868  1
  Li  Li5  1  0.53642310  0.33098505  0.04368060  1
  Li  Li6  1  0.98571673  0.65640506  0.32357387  1
  Li  Li7  1  0.46773407  0.72165879  0.94244785  1
  Li  Li8  1  0.96786080  0.21218914  0.45944232  1
  Li  Li9  1  0.00878752  0.52472230  0.12157394  1
  Li  Li10  1  0.49546573  0.99521645  0.38513380  1
  Li  Li11  1  0.43768284  0.53149396  0.73156469  1
  Li  Li12  1  0.02742249  0.12011649  0.24988509  1
  Li  Li13  1  0.52103405  0.85112970  0.17574171  1
  Fe  Fe14  1  0.06081769  0.98242178  0.02336942  1
  Fe  Fe15  1  0.49595076  0.54537162  0.45607693  1
  O  O16  1  0.30119291  0.05283407  0.19668902  1
  O  O17  1  0.16840614  0.77378761  0.96120277  1
  O  O18  1  0.67572672  0.32836420  0.44641595  1
  O  O19  1  0.73528123  0.67056231  0.11166210  1
  O  O20  1  0.24284940  0.32513782  0.90023535  1
  O  O21  1  0.33094058  0.69006465  0.53634290  1
  O  O22  1  0.21446432  0.46299699  0.29809987  1
  O  O23  1  0.78653234  0.87675301  0.38030310  1
  F  F24  1  0.20721217  0.09883393  0.61109438  1
  F  F25  1  0.79872675  0.56937493  0.70833796  1
  F  F26  1  0.80553272  0.20485433  0.06602634  1
  F  F27  1  0.68064663  0.91383265  0.79255159  1
