# generated using pymatgen
data_Mn3(O2F)2
_symmetry_space_group_name_H-M   'P 1'
_cell_length_a   4.65179907
_cell_length_b   4.65179907
_cell_length_c   9.17830700
_cell_angle_alpha   90.00000000
_cell_angle_beta   90.00000000
_cell_angle_gamma   90.00000000
_symmetry_Int_Tables_number   1
_chemical_formula_structural   Mn3(O2F)2
_chemical_formula_sum   'Mn6 O8 F4'
_cell_volume   198.61153799
_cell_formula_units_Z   2
loop_
 _symmetry_equiv_pos_site_id
 _symmetry_equiv_pos_as_xyz
  1  'x, y, z'
loop_
 _atom_site_type_symbol
 _atom_site_label
 _atom_site_symmetry_multiplicity
 _atom_site_fract_x
 _atom_site_fract_y
 _atom_site_fract_z
 _atom_site_occupancy
  Mn  Mn0  1  0.50000000  0.50000000  0.68161200  1
  Mn  Mn1  1  0.50000000  0.50000000  0.00000000  1
  Mn  Mn2  1  0.50000000  0.50000000  0.31838800  1
  Mn  Mn3  1  0.00000000  0.00000000  0.50000000  1
  Mn  Mn4  1  0.00000000  0.00000000  0.81838800  1
  Mn  Mn5  1  0.00000000  0.00000000  0.18161200  1
  O  O6  1  0.69463350  0.30536650  0.83498100  1
  O  O7  1  0.69463350  0.30536650  0.16501900  1
  O  O8  1  0.80536650  0.80536650  0.66501900  1
  O  O9  1  0.80536650  0.80536650  0.33498100  1
  O  O10  1  0.19463350  0.19463350  0.66501900  1
  O  O11  1  0.19463350  0.19463350  0.33498100  1
  O  O12  1  0.30536650  0.69463350  0.83498100  1
  O  O13  1  0.30536650  0.69463350  0.16501900  1
  F  F14  1  0.68172550  0.31827450  0.50000000  1
  F  F15  1  0.81827450  0.81827450  0.00000000  1
  F  F16  1  0.18172550  0.18172550  0.00000000  1
  F  F17  1  0.31827450  0.68172550  0.50000000  1
