# generated using pymatgen
data_Li5Cr4O8
_symmetry_space_group_name_H-M   'P 1'
_cell_length_a   5.93410800
_cell_length_b   10.57442600
_cell_length_c   9.96338700
_cell_angle_alpha   90.00000000
_cell_angle_beta   90.00000000
_cell_angle_gamma   90.00000000
_symmetry_Int_Tables_number   1
_chemical_formula_structural   Li5Cr4O8
_chemical_formula_sum   'Li20 Cr16 O32'
_cell_volume   625.20040131
_cell_formula_units_Z   4
loop_
 _symmetry_equiv_pos_site_id
 _symmetry_equiv_pos_as_xyz
  1  'x, y, z'
loop_
 _atom_site_type_symbol
 _atom_site_label
 _atom_site_symmetry_multiplicity
 _atom_site_fract_x
 _atom_site_fract_y
 _atom_site_fract_z
 _atom_site_occupancy
  Li  Li0  1  0.78046300  0.10487200  0.93715300  1
  Li  Li1  1  0.21953700  0.10487200  0.93715300  1
  Li  Li2  1  0.00000000  0.29483200  0.94970800  1
  Li  Li3  1  0.00000000  0.18371800  0.72307900  1
  Li  Li4  1  0.00000000  0.48901700  0.01324500  1
  Li  Li5  1  0.50000000  0.20516800  0.44970800  1
  Li  Li6  1  0.50000000  0.01098300  0.51324500  1
  Li  Li7  1  0.28046300  0.39512800  0.43715300  1
  Li  Li8  1  0.50000000  0.31628200  0.22307900  1
  Li  Li9  1  0.71953700  0.39512800  0.43715300  1
  Li  Li10  1  0.28046300  0.60487200  0.93715300  1
  Li  Li11  1  0.71953700  0.60487200  0.93715300  1
  Li  Li12  1  0.50000000  0.79483200  0.94970800  1
  Li  Li13  1  0.50000000  0.68371800  0.72307900  1
  Li  Li14  1  0.50000000  0.98901700  0.01324500  1
  Li  Li15  1  0.00000000  0.70516800  0.44970800  1
  Li  Li16  1  0.00000000  0.51098300  0.51324500  1
  Li  Li17  1  0.78046300  0.89512800  0.43715300  1
  Li  Li18  1  0.00000000  0.81628200  0.22307900  1
  Li  Li19  1  0.21953700  0.89512800  0.43715300  1
  Cr  Cr20  1  0.00000000  0.16193400  0.47359000  1
  Cr  Cr21  1  0.24756050  0.06843050  0.21416800  1
  Cr  Cr22  1  0.50000000  0.33806600  0.97359000  1
  Cr  Cr23  1  0.74756050  0.43156950  0.71416800  1
  Cr  Cr24  1  0.75243950  0.06843050  0.21416800  1
  Cr  Cr25  1  0.50000000  0.18292700  0.71414400  1
  Cr  Cr26  1  0.00000000  0.31707300  0.21414400  1
  Cr  Cr27  1  0.25243950  0.43156950  0.71416800  1
  Cr  Cr28  1  0.50000000  0.66193400  0.47359000  1
  Cr  Cr29  1  0.74756050  0.56843050  0.21416800  1
  Cr  Cr30  1  0.00000000  0.83806600  0.97359000  1
  Cr  Cr31  1  0.24756050  0.93156950  0.71416800  1
  Cr  Cr32  1  0.25243950  0.56843050  0.21416800  1
  Cr  Cr33  1  0.00000000  0.68292700  0.71414400  1
  Cr  Cr34  1  0.50000000  0.81707300  0.21414400  1
  Cr  Cr35  1  0.75243950  0.93156950  0.71416800  1
  O  O36  1  0.50000000  0.01761000  0.82454500  1
  O  O37  1  0.73765200  0.09422200  0.59807300  1
  O  O38  1  0.50000000  0.48769800  0.32570600  1
  O  O39  1  0.76280550  0.23117550  0.33223800  1
  O  O40  1  0.00000000  0.15530200  0.09996400  1
  O  O41  1  0.26234800  0.09422200  0.59807300  1
  O  O42  1  0.23719450  0.23117550  0.33223800  1
  O  O43  1  0.50000000  0.14375000  0.10127100  1
  O  O44  1  0.00000000  0.35625000  0.60127100  1
  O  O45  1  0.26280550  0.26882450  0.83223800  1
  O  O46  1  0.73719450  0.26882450  0.83223800  1
  O  O47  1  0.50000000  0.34469800  0.59996400  1
  O  O48  1  0.00000000  0.48239000  0.32454500  1
  O  O49  1  0.23765200  0.40577800  0.09807300  1
  O  O50  1  0.00000000  0.01230200  0.82570600  1
  O  O51  1  0.76234800  0.40577800  0.09807300  1
  O  O52  1  0.00000000  0.51761000  0.82454500  1
  O  O53  1  0.23765200  0.59422200  0.59807300  1
  O  O54  1  0.00000000  0.98769800  0.32570600  1
  O  O55  1  0.26280550  0.73117550  0.33223800  1
  O  O56  1  0.50000000  0.65530200  0.09996400  1
  O  O57  1  0.76234800  0.59422200  0.59807300  1
  O  O58  1  0.73719450  0.73117550  0.33223800  1
  O  O59  1  0.00000000  0.64375000  0.10127100  1
  O  O60  1  0.50000000  0.85625000  0.60127100  1
  O  O61  1  0.76280550  0.76882450  0.83223800  1
  O  O62  1  0.23719450  0.76882450  0.83223800  1
  O  O63  1  0.00000000  0.84469800  0.59996400  1
  O  O64  1  0.50000000  0.98239000  0.32454500  1
  O  O65  1  0.73765200  0.90577800  0.09807300  1
  O  O66  1  0.50000000  0.51230200  0.82570600  1
  O  O67  1  0.26234800  0.90577800  0.09807300  1
