# generated using pymatgen
data_Fe10O9F11
_symmetry_space_group_name_H-M   'P 1'
_cell_length_a   4.77461500
_cell_length_b   15.41743500
_cell_length_c   4.78551166
_cell_angle_alpha   90.00000000
_cell_angle_beta   94.66565898
_cell_angle_gamma   90.00000000
_symmetry_Int_Tables_number   1
_chemical_formula_structural   Fe10O9F11
_chemical_formula_sum   'Fe10 O9 F11'
_cell_volume   351.10527943
_cell_formula_units_Z   1
loop_
 _symmetry_equiv_pos_site_id
 _symmetry_equiv_pos_as_xyz
  1  'x, y, z'
loop_
 _atom_site_type_symbol
 _atom_site_label
 _atom_site_symmetry_multiplicity
 _atom_site_fract_x
 _atom_site_fract_y
 _atom_site_fract_z
 _atom_site_occupancy
  Fe  Fe0  1  0.99570600  0.70225700  0.99480000  1
  Fe  Fe1  1  0.99863200  0.50000000  0.99836200  1
  Fe  Fe2  1  0.99570600  0.29774300  0.99480000  1
  Fe  Fe3  1  0.02944300  0.09043600  0.01089000  1
  Fe  Fe4  1  0.02944300  0.90956400  0.01089000  1
  Fe  Fe5  1  0.49895800  0.59787800  0.49886100  1
  Fe  Fe6  1  0.49242800  0.20804200  0.48570000  1
  Fe  Fe7  1  0.49895800  0.40212200  0.49886100  1
  Fe  Fe8  1  0.45144300  0.00000000  0.50637700  1
  Fe  Fe9  1  0.49242800  0.79195800  0.48570000  1
  O  O10  1  0.20136000  0.00000000  0.79791200  1
  O  O11  1  0.29670200  0.69596700  0.29367200  1
  O  O12  1  0.29706800  0.50000000  0.29732400  1
  O  O13  1  0.29670200  0.30403300  0.29367200  1
  O  O14  1  0.31491900  0.10523500  0.31875000  1
  O  O15  1  0.31491900  0.89476500  0.31875000  1
  O  O16  1  0.69913700  0.69845900  0.69569600  1
  O  O17  1  0.69908700  0.50000000  0.69912400  1
  O  O18  1  0.69913700  0.30154100  0.69569600  1
  F  F19  1  0.18994500  0.59955400  0.80516500  1
  F  F20  1  0.18994500  0.40044600  0.80516500  1
  F  F21  1  0.19829600  0.20249100  0.80284600  1
  F  F22  1  0.19829600  0.79750900  0.80284600  1
  F  F23  1  0.70416100  0.10325200  0.70807900  1
  F  F24  1  0.70416100  0.89674800  0.70807900  1
  F  F25  1  0.80571900  0.59975100  0.18882100  1
  F  F26  1  0.80676700  0.20126400  0.19185400  1
  F  F27  1  0.80571900  0.40024900  0.18882100  1
  F  F28  1  0.80676700  0.79873600  0.19185400  1
  F  F29  1  0.78805000  0.00000000  0.21063200  1
