# generated using pymatgen
data_Ti3Mn2Co(PO4)6
_symmetry_space_group_name_H-M   'P 1'
_cell_length_a   8.66208832
_cell_length_b   8.66208832
_cell_length_c   21.19799140
_cell_angle_alpha   90.00000000
_cell_angle_beta   90.00000000
_cell_angle_gamma   120.00000000
_symmetry_Int_Tables_number   1
_chemical_formula_structural   Ti3Mn2Co(PO4)6
_chemical_formula_sum   'Ti9 Mn6 Co3 P18 O72'
_cell_volume   1377.43323919
_cell_formula_units_Z   3
loop_
 _symmetry_equiv_pos_site_id
 _symmetry_equiv_pos_as_xyz
  1  'x, y, z'
loop_
 _atom_site_type_symbol
 _atom_site_label
 _atom_site_symmetry_multiplicity
 _atom_site_fract_x
 _atom_site_fract_y
 _atom_site_fract_z
 _atom_site_occupancy
  Ti  Ti0  1  0.33333333  0.66666667  0.81058067  1
  Ti  Ti1  1  0.33333333  0.66666667  0.02089167  1
  Ti  Ti2  1  0.33333333  0.66666667  0.31346867  1
  Ti  Ti3  1  0.00000000  0.00000000  0.14391400  1
  Ti  Ti4  1  0.00000000  0.00000000  0.35422500  1
  Ti  Ti5  1  0.00000000  0.00000000  0.64680200  1
  Ti  Ti6  1  0.66666667  0.33333333  0.47724733  1
  Ti  Ti7  1  0.66666667  0.33333333  0.68755833  1
  Ti  Ti8  1  0.66666667  0.33333333  0.98013533  1
  Mn  Mn9  1  0.33333333  0.66666667  0.66277667  1
  Mn  Mn10  1  0.33333333  0.66666667  0.16613767  1
  Mn  Mn11  1  0.00000000  0.00000000  0.99611000  1
  Mn  Mn12  1  0.00000000  0.00000000  0.49947100  1
  Mn  Mn13  1  0.66666667  0.33333333  0.32944333  1
  Mn  Mn14  1  0.66666667  0.33333333  0.83280433  1
  Co  Co15  1  0.33333333  0.66666667  0.52236567  1
  Co  Co16  1  0.00000000  0.00000000  0.85569900  1
  Co  Co17  1  0.66666667  0.33333333  0.18903233  1
  P  P18  1  0.00040367  0.70761233  0.24995533  1
  P  P19  1  0.29238767  0.29279133  0.24995533  1
  P  P20  1  0.70720867  0.99959633  0.24995533  1
  P  P21  1  0.95922767  0.33313633  0.08467633  1
  P  P22  1  0.37390867  0.04077233  0.08467633  1
  P  P23  1  0.66686367  0.62609133  0.08467633  1
  P  P24  1  0.66707033  0.04094567  0.58328867  1
  P  P25  1  0.95905433  0.62612467  0.58328867  1
  P  P26  1  0.37387533  0.33292967  0.58328867  1
  P  P27  1  0.62589433  0.66646967  0.41800967  1
  P  P28  1  0.04057533  0.37410567  0.41800967  1
  P  P29  1  0.33353033  0.95942467  0.41800967  1
  P  P30  1  0.33373700  0.37427900  0.91662200  1
  P  P31  1  0.62572100  0.95945800  0.91662200  1
  P  P32  1  0.04054200  0.66626300  0.91662200  1
  P  P33  1  0.29256100  0.99980300  0.75134300  1
  P  P34  1  0.70724200  0.70743900  0.75134300  1
  P  P35  1  0.00019700  0.29275800  0.75134300  1
  O  O36  1  0.14370567  0.66198633  0.97549333  1
  O  O37  1  0.33801367  0.48171933  0.97549333  1
  O  O38  1  0.98007667  0.16447133  0.07839133  1
  O  O39  1  0.51828067  0.85629433  0.97549333  1
  O  O40  1  0.86837033  0.33833967  0.14425367  1
  O  O41  1  0.15065833  0.50119667  0.08515867  1
  O  O42  1  0.18439467  0.01992333  0.07839133  1
  O  O43  1  0.35053833  0.84934167  0.08515867  1
  O  O44  1  0.00346500  0.81294200  0.19042800  1
  O  O45  1  0.49880333  0.64946167  0.08515867  1
  O  O46  1  0.83392200  0.52348800  0.25660300  1
  O  O47  1  0.18705800  0.19052300  0.19042800  1
  O  O48  1  0.46996933  0.13162967  0.14425367  1
  O  O49  1  0.83552867  0.81560533  0.07839133  1
  O  O50  1  0.17177400  0.69139500  0.24563300  1
  O  O51  1  0.66166033  0.53003067  0.14425367  1
  O  O52  1  0.30860500  0.48037900  0.24563300  1
  O  O53  1  0.47651200  0.31043400  0.25660300  1
  O  O54  1  0.51962100  0.82822600  0.24563300  1
  O  O55  1  0.80947700  0.99653500  0.19042800  1
  O  O56  1  0.14282667  0.47887733  0.35733433  1
  O  O57  1  0.68956600  0.16607800  0.25660300  1
  O  O58  1  0.33605067  0.85717333  0.35733433  1
  O  O59  1  0.52112267  0.66394933  0.35733433  1
  O  O60  1  0.81037233  0.99531967  0.30882667  1
  O  O61  1  0.00468033  0.81505267  0.30882667  1
  O  O62  1  0.64674333  0.49780467  0.41172467  1
  O  O63  1  0.18494733  0.18962767  0.30882667  1
  O  O64  1  0.53503700  0.67167300  0.47758700  1
  O  O65  1  0.81732500  0.83453000  0.41849200  1
  O  O66  1  0.85106133  0.35325667  0.41172467  1
  O  O67  1  0.01720500  0.18267500  0.41849200  1
  O  O68  1  0.67013167  0.14627533  0.52376133  1
  O  O69  1  0.16547000  0.98279500  0.41849200  1
  O  O70  1  0.50058867  0.85682133  0.58993633  1
  O  O71  1  0.85372467  0.52385633  0.52376133  1
  O  O72  1  0.13663600  0.46496300  0.47758700  1
  O  O73  1  0.50219533  0.14893867  0.41172467  1
  O  O74  1  0.83844067  0.02472833  0.57896633  1
  O  O75  1  0.32832700  0.86336400  0.47758700  1
  O  O76  1  0.97527167  0.81371233  0.57896633  1
  O  O77  1  0.14317867  0.64376733  0.58993633  1
  O  O78  1  0.18628767  0.16155933  0.57896633  1
  O  O79  1  0.47614367  0.32986833  0.52376133  1
  O  O80  1  0.80949333  0.81221067  0.69066767  1
  O  O81  1  0.35623267  0.49941133  0.58993633  1
  O  O82  1  0.00271733  0.19050667  0.69066767  1
  O  O83  1  0.18778933  0.99728267  0.69066767  1
  O  O84  1  0.47703900  0.32865300  0.64216000  1
  O  O85  1  0.67134700  0.14838600  0.64216000  1
  O  O86  1  0.31341000  0.83113800  0.74505800  1
  O  O87  1  0.85161400  0.52296100  0.64216000  1
  O  O88  1  0.20170367  0.00500633  0.81092033  1
  O  O89  1  0.48399167  0.16786333  0.75182533  1
  O  O90  1  0.51772800  0.68659000  0.74505800  1
  O  O91  1  0.68387167  0.51600833  0.75182533  1
  O  O92  1  0.33679833  0.47960867  0.85709467  1
  O  O93  1  0.83213667  0.31612833  0.75182533  1
  O  O94  1  0.16725533  0.19015467  0.92326967  1
  O  O95  1  0.52039133  0.85718967  0.85709467  1
  O  O96  1  0.80330267  0.79829633  0.81092033  1
  O  O97  1  0.16886200  0.48227200  0.74505800  1
  O  O98  1  0.50510733  0.35806167  0.91229967  1
  O  O99  1  0.99499367  0.19669733  0.81092033  1
  O  O100  1  0.64193833  0.14704567  0.91229967  1
  O  O101  1  0.80984533  0.97710067  0.92326967  1
  O  O102  1  0.85295433  0.49489267  0.91229967  1
  O  O103  1  0.14281033  0.66320167  0.85709467  1
  O  O104  1  0.47616000  0.14554400  0.02400100  1
  O  O105  1  0.02289933  0.83274467  0.92326967  1
  O  O106  1  0.66938400  0.52384000  0.02400100  1
  O  O107  1  0.85445600  0.33061600  0.02400100  1
