# generated using pymatgen
data_LiMnP2O7
_symmetry_space_group_name_H-M   'P 1'
_cell_length_a   6.21832388
_cell_length_b   6.29691814
_cell_length_c   7.28686454
_cell_angle_alpha   68.95699889
_cell_angle_beta   74.42531783
_cell_angle_gamma   80.73313637
_symmetry_Int_Tables_number   1
_chemical_formula_structural   LiMnP2O7
_chemical_formula_sum   'Li2 Mn2 P4 O14'
_cell_volume   255.85668392
_cell_formula_units_Z   2
loop_
 _symmetry_equiv_pos_site_id
 _symmetry_equiv_pos_as_xyz
  1  'x, y, z'
loop_
 _atom_site_type_symbol
 _atom_site_label
 _atom_site_symmetry_multiplicity
 _atom_site_fract_x
 _atom_site_fract_y
 _atom_site_fract_z
 _atom_site_occupancy
  Li  Li0  1  0.66666300  0.08832300  0.84386400  1
  Li  Li1  1  0.33333700  0.91167700  0.15613600  1
  Mn  Mn2  1  0.94295900  0.27060000  0.21565700  1
  Mn  Mn3  1  0.05704100  0.72940000  0.78434300  1
  P  P4  1  0.81827800  0.78874900  0.23996800  1
  P  P5  1  0.60971400  0.63529900  0.69328700  1
  P  P6  1  0.39028600  0.36470100  0.30671300  1
  P  P7  1  0.18172200  0.21125100  0.76003200  1
  O  O8  1  0.00866600  0.06054200  0.75376000  1
  O  O9  1  0.94230800  0.60840100  0.13444400  1
  O  O10  1  0.75701200  0.79254800  0.72544600  1
  O  O11  1  0.72926700  0.62567300  0.46501800  1
  O  O12  1  0.64272100  0.93249700  0.13687100  1
  O  O13  1  0.61578600  0.39660800  0.83075700  1
  O  O14  1  0.62458800  0.24655400  0.32898700  1
  O  O15  1  0.37541200  0.75344600  0.67101300  1
  O  O16  1  0.38421400  0.60339200  0.16924300  1
  O  O17  1  0.35727900  0.06750300  0.86312900  1
  O  O18  1  0.27073300  0.37432700  0.53498200  1
  O  O19  1  0.24298800  0.20745200  0.27455400  1
  O  O20  1  0.05769200  0.39159900  0.86555600  1
  O  O21  1  0.99133400  0.93945800  0.24624000  1
