# generated using pymatgen
data_Mn2O3F
_symmetry_space_group_name_H-M   'P 1'
_cell_length_a   6.34436400
_cell_length_b   6.65503800
_cell_length_c   12.11346700
_cell_angle_alpha   90.00000000
_cell_angle_beta   90.00000000
_cell_angle_gamma   90.00000000
_symmetry_Int_Tables_number   1
_chemical_formula_structural   Mn2O3F
_chemical_formula_sum   'Mn16 O24 F8'
_cell_volume   511.45460387
_cell_formula_units_Z   8
loop_
 _symmetry_equiv_pos_site_id
 _symmetry_equiv_pos_as_xyz
  1  'x, y, z'
loop_
 _atom_site_type_symbol
 _atom_site_label
 _atom_site_symmetry_multiplicity
 _atom_site_fract_x
 _atom_site_fract_y
 _atom_site_fract_z
 _atom_site_occupancy
  Mn  Mn0  1  0.50000000  0.50145500  0.37547600  1
  Mn  Mn1  1  0.50000000  0.50145500  0.62452400  1
  Mn  Mn2  1  0.50000000  0.48312600  0.87416700  1
  Mn  Mn3  1  0.50000000  0.48312600  0.12583300  1
  Mn  Mn4  1  0.50000000  0.01402800  0.00000000  1
  Mn  Mn5  1  0.50000000  0.97613100  0.50000000  1
  Mn  Mn6  1  0.50000000  0.01865900  0.74972500  1
  Mn  Mn7  1  0.50000000  0.01865900  0.25027500  1
  Mn  Mn8  1  0.00000000  0.00145500  0.37547600  1
  Mn  Mn9  1  0.00000000  0.00145500  0.62452400  1
  Mn  Mn10  1  0.00000000  0.98312600  0.87416700  1
  Mn  Mn11  1  0.00000000  0.98312600  0.12583300  1
  Mn  Mn12  1  0.00000000  0.51402800  0.00000000  1
  Mn  Mn13  1  0.00000000  0.47613100  0.50000000  1
  Mn  Mn14  1  0.00000000  0.51865900  0.74972500  1
  Mn  Mn15  1  0.00000000  0.51865900  0.25027500  1
  O  O16  1  0.50000000  0.30886300  0.74968600  1
  O  O17  1  0.50000000  0.30257100  0.00000000  1
  O  O18  1  0.50000000  0.30886300  0.25031400  1
  O  O19  1  0.30758850  0.99648250  0.37499200  1
  O  O20  1  0.30758850  0.99648250  0.62500800  1
  O  O21  1  0.30558300  0.00463000  0.87479500  1
  O  O22  1  0.30558300  0.00463000  0.12520500  1
  O  O23  1  0.69241150  0.99648250  0.37499200  1
  O  O24  1  0.69241150  0.99648250  0.62500800  1
  O  O25  1  0.69441700  0.00463000  0.87479500  1
  O  O26  1  0.69441700  0.00463000  0.12520500  1
  O  O27  1  0.50000000  0.68837100  0.50000000  1
  O  O28  1  0.00000000  0.80886300  0.74968600  1
  O  O29  1  0.00000000  0.80257100  0.00000000  1
  O  O30  1  0.00000000  0.80886300  0.25031400  1
  O  O31  1  0.80758850  0.49648250  0.37499200  1
  O  O32  1  0.80758850  0.49648250  0.62500800  1
  O  O33  1  0.80558300  0.50463000  0.87479500  1
  O  O34  1  0.80558300  0.50463000  0.12520500  1
  O  O35  1  0.19241150  0.49648250  0.37499200  1
  O  O36  1  0.19241150  0.49648250  0.62500800  1
  O  O37  1  0.19441700  0.50463000  0.87479500  1
  O  O38  1  0.19441700  0.50463000  0.12520500  1
  O  O39  1  0.00000000  0.18837100  0.50000000  1
  F  F40  1  0.50000000  0.27897900  0.50000000  1
  F  F41  1  0.50000000  0.71046000  0.75636700  1
  F  F42  1  0.50000000  0.69035100  0.00000000  1
  F  F43  1  0.50000000  0.71046000  0.24363300  1
  F  F44  1  0.00000000  0.77897900  0.50000000  1
  F  F45  1  0.00000000  0.21046000  0.75636700  1
  F  F46  1  0.00000000  0.19035100  0.00000000  1
  F  F47  1  0.00000000  0.21046000  0.24363300  1
