# generated using pymatgen
data_Fe2O3F
_symmetry_space_group_name_H-M   'P 1'
_cell_length_a   18.75071000
_cell_length_b   6.00708200
_cell_length_c   4.68803211
_cell_angle_alpha   90.00000000
_cell_angle_beta   94.08071004
_cell_angle_gamma   90.00000000
_symmetry_Int_Tables_number   1
_chemical_formula_structural   Fe2O3F
_chemical_formula_sum   'Fe16 O24 F8'
_cell_volume   526.70741527
_cell_formula_units_Z   8
loop_
 _symmetry_equiv_pos_site_id
 _symmetry_equiv_pos_as_xyz
  1  'x, y, z'
loop_
 _atom_site_type_symbol
 _atom_site_label
 _atom_site_symmetry_multiplicity
 _atom_site_fract_x
 _atom_site_fract_y
 _atom_site_fract_z
 _atom_site_occupancy
  Fe  Fe0  1  0.74124400  0.00000000  0.53454300  1
  Fe  Fe1  1  0.00000000  0.50000000  0.50000000  1
  Fe  Fe2  1  0.00000000  0.00000000  0.50000000  1
  Fe  Fe3  1  0.75875600  0.50000000  0.46545700  1
  Fe  Fe4  1  0.62549900  0.25503600  0.00051200  1
  Fe  Fe5  1  0.87450100  0.75503600  0.99948800  1
  Fe  Fe6  1  0.62549900  0.74496400  0.00051200  1
  Fe  Fe7  1  0.87450100  0.24496400  0.99948800  1
  Fe  Fe8  1  0.24124400  0.50000000  0.53454300  1
  Fe  Fe9  1  0.50000000  0.00000000  0.50000000  1
  Fe  Fe10  1  0.50000000  0.50000000  0.50000000  1
  Fe  Fe11  1  0.25875600  0.00000000  0.46545700  1
  Fe  Fe12  1  0.12549900  0.75503600  0.00051200  1
  Fe  Fe13  1  0.37450100  0.25503600  0.99948800  1
  Fe  Fe14  1  0.12549900  0.24496400  0.00051200  1
  Fe  Fe15  1  0.37450100  0.74496400  0.99948800  1
  O  O16  1  0.83127400  0.50000000  0.17810300  1
  O  O17  1  0.58025700  0.50000000  0.17922300  1
  O  O18  1  0.70169950  0.25023350  0.30743800  1
  O  O19  1  0.95159450  0.25036550  0.30617800  1
  O  O20  1  0.70169950  0.74976650  0.30743800  1
  O  O21  1  0.95159450  0.74963450  0.30617800  1
  O  O22  1  0.54840550  0.75036550  0.69382200  1
  O  O23  1  0.54840550  0.24963450  0.69382200  1
  O  O24  1  0.79830050  0.75023350  0.69256200  1
  O  O25  1  0.79830050  0.24976650  0.69256200  1
  O  O26  1  0.91974300  0.00000000  0.82077700  1
  O  O27  1  0.66872600  0.00000000  0.82189700  1
  O  O28  1  0.33127400  0.00000000  0.17810300  1
  O  O29  1  0.08025700  0.00000000  0.17922300  1
  O  O30  1  0.20169950  0.75023350  0.30743800  1
  O  O31  1  0.45159450  0.75036550  0.30617800  1
  O  O32  1  0.20169950  0.24976650  0.30743800  1
  O  O33  1  0.45159450  0.24963450  0.30617800  1
  O  O34  1  0.04840550  0.25036550  0.69382200  1
  O  O35  1  0.04840550  0.74963450  0.69382200  1
  O  O36  1  0.29830050  0.25023350  0.69256200  1
  O  O37  1  0.29830050  0.74976650  0.69256200  1
  O  O38  1  0.41974300  0.50000000  0.82077700  1
  O  O39  1  0.16872600  0.50000000  0.82189700  1
  F  F40  1  0.82355900  0.00000000  0.20241000  1
  F  F41  1  0.57460100  0.00000000  0.20002200  1
  F  F42  1  0.92539900  0.50000000  0.79997800  1
  F  F43  1  0.67644100  0.50000000  0.79759000  1
  F  F44  1  0.32355900  0.50000000  0.20241000  1
  F  F45  1  0.07460100  0.50000000  0.20002200  1
  F  F46  1  0.42539900  0.00000000  0.79997800  1
  F  F47  1  0.17644100  0.00000000  0.79759000  1
