# generated using pymatgen
data_Mn3(O2F)2
_symmetry_space_group_name_H-M   'P 1'
_cell_length_a   5.54566700
_cell_length_b   5.54907759
_cell_length_c   7.39034680
_cell_angle_alpha   71.49634829
_cell_angle_beta   71.34834433
_cell_angle_gamma   70.93303213
_symmetry_Int_Tables_number   1
_chemical_formula_structural   Mn3(O2F)2
_chemical_formula_sum   'Mn6 O8 F4'
_cell_volume   197.82061861
_cell_formula_units_Z   2
loop_
 _symmetry_equiv_pos_site_id
 _symmetry_equiv_pos_as_xyz
  1  'x, y, z'
loop_
 _atom_site_type_symbol
 _atom_site_label
 _atom_site_symmetry_multiplicity
 _atom_site_fract_x
 _atom_site_fract_y
 _atom_site_fract_z
 _atom_site_occupancy
  Mn  Mn0  1  0.30929700  0.31905500  0.16217500  1
  Mn  Mn1  1  0.65788200  0.66814700  0.32847200  1
  Mn  Mn2  1  0.34113600  0.35318500  0.68210200  1
  Mn  Mn3  1  0.67177000  0.68349100  0.82924800  1
  Mn  Mn4  1  0.99665500  0.00840500  0.50324600  1
  Mn  Mn5  1  0.02059200  0.97135600  0.99891700  1
  O  O6  1  0.34988900  0.97309700  0.33041900  1
  O  O7  1  0.02891500  0.65008500  0.66817300  1
  O  O8  1  0.77368500  0.76523700  0.03858000  1
  O  O9  1  0.22908300  0.21979200  0.96516700  1
  O  O10  1  0.56949100  0.57093500  0.62525900  1
  O  O11  1  0.63914900  0.04081400  0.66883100  1
  O  O12  1  0.96309100  0.36177900  0.33151000  1
  O  O13  1  0.31888100  0.67479300  0.00065600  1
  F  F14  1  0.11523400  0.12608600  0.69104100  1
  F  F15  1  0.42252700  0.42323900  0.36951200  1
  F  F16  1  0.88838900  0.90079800  0.30646600  1
  F  F17  1  0.70433200  0.28970800  0.00022800  1
