# generated using pymatgen
data_LiMn(PO3)4
_symmetry_space_group_name_H-M   'P 1'
_cell_length_a   6.98609500
_cell_length_b   9.00631300
_cell_length_c   7.20831960
_cell_angle_alpha   90.00000000
_cell_angle_beta   94.82709175
_cell_angle_gamma   90.00000000
_symmetry_Int_Tables_number   1
_chemical_formula_structural   LiMn(PO3)4
_chemical_formula_sum   'Li2 Mn2 P8 O24'
_cell_volume   451.93133590
_cell_formula_units_Z   2
loop_
 _symmetry_equiv_pos_site_id
 _symmetry_equiv_pos_as_xyz
  1  'x, y, z'
loop_
 _atom_site_type_symbol
 _atom_site_label
 _atom_site_symmetry_multiplicity
 _atom_site_fract_x
 _atom_site_fract_y
 _atom_site_fract_z
 _atom_site_occupancy
  Li  Li0  1  0.33314000  0.64753800  0.69342300  1
  Li  Li1  1  0.66686000  0.14753800  0.30657700  1
  Mn  Mn2  1  0.23197000  0.07309100  0.23319400  1
  Mn  Mn3  1  0.76803000  0.57309100  0.76680600  1
  P  P4  1  0.97956600  0.63035900  0.41591200  1
  P  P5  1  0.07492600  0.43044700  0.09126300  1
  P  P6  1  0.39637700  0.26666700  0.58840500  1
  P  P7  1  0.43550800  0.61339100  0.06431500  1
  P  P8  1  0.56449200  0.11339100  0.93568500  1
  P  P9  1  0.60362300  0.76666700  0.41159500  1
  P  P10  1  0.92507400  0.93044700  0.90873700  1
  P  P11  1  0.02043400  0.13035900  0.58408800  1
  O  O12  1  0.02045400  0.05204900  0.78239400  1
  O  O13  1  0.97856600  0.45679600  0.89759200  1
  O  O14  1  0.11652200  0.02205000  0.45789600  1
  O  O15  1  0.07021700  0.27840400  0.17227800  1
  O  O16  1  0.17293000  0.26283200  0.63087100  1
  O  O17  1  0.17170000  0.68988000  0.47899100  1
  O  O18  1  0.30076600  0.47014500  0.09169500  1
  O  O19  1  0.32556400  0.73287300  0.96283200  1
  O  O20  1  0.41156300  0.20968200  0.38885600  1
  O  O21  1  0.49401700  0.13984800  0.72009100  1
  O  O22  1  0.38582800  0.05963800  0.02274900  1
  O  O23  1  0.47132600  0.41760000  0.63583900  1
  O  O24  1  0.52867400  0.91760000  0.36416100  1
  O  O25  1  0.61417200  0.55963800  0.97725100  1
  O  O26  1  0.50598300  0.63984800  0.27990900  1
  O  O27  1  0.58843700  0.70968200  0.61114400  1
  O  O28  1  0.67443600  0.23287300  0.03716800  1
  O  O29  1  0.69923400  0.97014500  0.90830500  1
  O  O30  1  0.82830000  0.18988000  0.52100900  1
  O  O31  1  0.82707000  0.76283200  0.36912900  1
  O  O32  1  0.92978300  0.77840400  0.82772200  1
  O  O33  1  0.88347800  0.52205000  0.54210400  1
  O  O34  1  0.02143400  0.95679600  0.10240800  1
  O  O35  1  0.97954600  0.55204900  0.21760600  1
