# generated using pymatgen
data_Li2Mn3(BO3)3
_symmetry_space_group_name_H-M   'P 1'
_cell_length_a   16.47112200
_cell_length_b   6.33879400
_cell_length_c   14.40464162
_cell_angle_alpha   90.00000000
_cell_angle_beta   90.05493452
_cell_angle_gamma   90.00000000
_symmetry_Int_Tables_number   1
_chemical_formula_structural   Li2Mn3(BO3)3
_chemical_formula_sum   'Li16 Mn24 B24 O72'
_cell_volume   1503.94543669
_cell_formula_units_Z   8
loop_
 _symmetry_equiv_pos_site_id
 _symmetry_equiv_pos_as_xyz
  1  'x, y, z'
loop_
 _atom_site_type_symbol
 _atom_site_label
 _atom_site_symmetry_multiplicity
 _atom_site_fract_x
 _atom_site_fract_y
 _atom_site_fract_z
 _atom_site_occupancy
  Li  Li0  1  0.64484200  0.50000000  0.50962000  1
  Li  Li1  1  0.67104600  0.50000000  0.13914300  1
  Li  Li2  1  0.89620300  0.50000000  0.01422600  1
  Li  Li3  1  0.68568100  0.00000000  0.84865800  1
  Li  Li4  1  0.92093300  0.50000000  0.63859200  1
  Li  Li5  1  0.64692300  0.00000000  0.51062800  1
  Li  Li6  1  0.89376800  0.00000000  0.00778100  1
  Li  Li7  1  0.93556500  0.00000000  0.35121400  1
  Li  Li8  1  0.14484200  0.00000000  0.50962000  1
  Li  Li9  1  0.17104600  0.00000000  0.13914300  1
  Li  Li10  1  0.39620300  0.00000000  0.01422600  1
  Li  Li11  1  0.18568100  0.50000000  0.84865800  1
  Li  Li12  1  0.42093300  0.00000000  0.63859200  1
  Li  Li13  1  0.14692300  0.50000000  0.51062800  1
  Li  Li14  1  0.39376800  0.50000000  0.00778100  1
  Li  Li15  1  0.43556500  0.50000000  0.35121400  1
  Mn  Mn16  1  0.58454400  0.25500800  0.68912700  1
  Mn  Mn17  1  0.57118250  0.25136550  0.99453500  1
  Mn  Mn18  1  0.84372950  0.75014150  0.81620000  1
  Mn  Mn19  1  0.83464450  0.75152550  0.18905700  1
  Mn  Mn20  1  0.82160900  0.74872400  0.49434200  1
  Mn  Mn21  1  0.59326300  0.24662600  0.31593800  1
  Mn  Mn22  1  0.59326300  0.75337400  0.31593800  1
  Mn  Mn23  1  0.82160900  0.25127600  0.49434200  1
  Mn  Mn24  1  0.83464450  0.24847450  0.18905700  1
  Mn  Mn25  1  0.84372950  0.24985850  0.81620000  1
  Mn  Mn26  1  0.57118250  0.74863450  0.99453500  1
  Mn  Mn27  1  0.58454400  0.74499200  0.68912700  1
  Mn  Mn28  1  0.08454400  0.75500800  0.68912700  1
  Mn  Mn29  1  0.07118250  0.75136550  0.99453500  1
  Mn  Mn30  1  0.34372950  0.25014150  0.81620000  1
  Mn  Mn31  1  0.33464450  0.25152550  0.18905700  1
  Mn  Mn32  1  0.32160900  0.24872400  0.49434200  1
  Mn  Mn33  1  0.09326300  0.74662600  0.31593800  1
  Mn  Mn34  1  0.09326300  0.25337400  0.31593800  1
  Mn  Mn35  1  0.32160900  0.75127600  0.49434200  1
  Mn  Mn36  1  0.33464450  0.74847450  0.18905700  1
  Mn  Mn37  1  0.34372950  0.74985850  0.81620000  1
  Mn  Mn38  1  0.07118250  0.24863450  0.99453500  1
  Mn  Mn39  1  0.08454400  0.24499200  0.68912700  1
  B  B40  1  0.74952400  0.50000000  0.66294300  1
  B  B41  1  0.74501400  0.50000000  0.33409900  1
  B  B42  1  0.75268800  0.75045100  0.99975600  1
  B  B43  1  0.50366950  0.24982150  0.49982300  1
  B  B44  1  0.99806700  0.50000000  0.83385300  1
  B  B45  1  0.99741600  0.50000000  0.16405400  1
  B  B46  1  0.74640600  0.00000000  0.66703500  1
  B  B47  1  0.50366950  0.75017850  0.49982300  1
  B  B48  1  0.75268800  0.24954900  0.99975600  1
  B  B49  1  0.75198100  0.00000000  0.33636800  1
  B  B50  1  0.50001500  0.50000000  0.83824100  1
  B  B51  1  0.99886600  0.00000000  0.16521600  1
  B  B52  1  0.24952400  0.00000000  0.66294300  1
  B  B53  1  0.24501400  0.00000000  0.33409900  1
  B  B54  1  0.25268800  0.25045100  0.99975600  1
  B  B55  1  0.00366950  0.74982150  0.49982300  1
  B  B56  1  0.49806700  0.00000000  0.83385300  1
  B  B57  1  0.49741600  0.00000000  0.16405400  1
  B  B58  1  0.24640600  0.50000000  0.66703500  1
  B  B59  1  0.00366950  0.25017850  0.49982300  1
  B  B60  1  0.25268800  0.74954900  0.99975600  1
  B  B61  1  0.25198100  0.50000000  0.33636800  1
  B  B62  1  0.00001500  0.00000000  0.83824100  1
  B  B63  1  0.49886600  0.50000000  0.16521600  1
  O  O64  1  0.56939300  0.50000000  0.21785300  1
  O  O65  1  0.51221200  0.50000000  0.74314000  1
  O  O66  1  0.50343100  0.50000000  0.06958200  1
  O  O67  1  0.56618500  0.50000000  0.89752200  1
  O  O68  1  0.67158000  0.50000000  0.69660300  1
  O  O69  1  0.66604200  0.50000000  0.37065700  1
  O  O70  1  0.99953150  0.76905750  0.40454900  1
  O  O71  1  0.68278900  0.26742800  0.05118800  1
  O  O72  1  0.82810450  0.75081750  0.04430200  1
  O  O73  1  0.57925800  0.24743000  0.54400600  1
  O  O74  1  0.93378750  0.73346950  0.55109900  1
  O  O75  1  0.74891050  0.23152850  0.90464600  1
  O  O76  1  0.92095800  0.50000000  0.87349100  1
  O  O77  1  0.81075100  0.50000000  0.39172300  1
  O  O78  1  0.91631500  0.50000000  0.18929600  1
  O  O79  1  0.50593500  0.00000000  0.73731100  1
  O  O80  1  0.51480600  0.00000000  0.06932400  1
  O  O81  1  0.55815100  0.00000000  0.22981200  1
  O  O82  1  0.56713700  0.00000000  0.88893700  1
  O  O83  1  0.67419400  0.00000000  0.37347500  1
  O  O84  1  0.76069000  0.50000000  0.56733000  1
  O  O85  1  0.75515500  0.50000000  0.23755500  1
  O  O86  1  0.81758100  0.50000000  0.72005100  1
  O  O87  1  0.66802600  0.00000000  0.70450800  1
  O  O88  1  0.74891050  0.76847150  0.90464600  1
  O  O89  1  0.93378750  0.26653050  0.55109900  1
  O  O90  1  0.57925800  0.75257000  0.54400600  1
  O  O91  1  0.82810450  0.24918250  0.04430200  1
  O  O92  1  0.68278900  0.73257200  0.05118800  1
  O  O93  1  0.99953150  0.23094250  0.40454900  1
  O  O94  1  0.81004400  0.00000000  0.72907800  1
  O  O95  1  0.75752700  0.00000000  0.57199500  1
  O  O96  1  0.76270300  0.00000000  0.24106600  1
  O  O97  1  0.82020800  0.00000000  0.39425000  1
  O  O98  1  0.92118100  0.00000000  0.87310200  1
  O  O99  1  0.92396300  0.00000000  0.20986400  1
  O  O100  1  0.06939300  0.00000000  0.21785300  1
  O  O101  1  0.01221200  0.00000000  0.74314000  1
  O  O102  1  0.00343100  0.00000000  0.06958200  1
  O  O103  1  0.06618500  0.00000000  0.89752200  1
  O  O104  1  0.17158000  0.00000000  0.69660300  1
  O  O105  1  0.16604200  0.00000000  0.37065700  1
  O  O106  1  0.49953150  0.26905750  0.40454900  1
  O  O107  1  0.18278900  0.76742800  0.05118800  1
  O  O108  1  0.32810450  0.25081750  0.04430200  1
  O  O109  1  0.07925800  0.74743000  0.54400600  1
  O  O110  1  0.43378750  0.23346950  0.55109900  1
  O  O111  1  0.24891050  0.73152850  0.90464600  1
  O  O112  1  0.42095800  0.00000000  0.87349100  1
  O  O113  1  0.31075100  0.00000000  0.39172300  1
  O  O114  1  0.41631500  0.00000000  0.18929600  1
  O  O115  1  0.00593500  0.50000000  0.73731100  1
  O  O116  1  0.01480600  0.50000000  0.06932400  1
  O  O117  1  0.05815100  0.50000000  0.22981200  1
  O  O118  1  0.06713700  0.50000000  0.88893700  1
  O  O119  1  0.17419400  0.50000000  0.37347500  1
  O  O120  1  0.26069000  0.00000000  0.56733000  1
  O  O121  1  0.25515500  0.00000000  0.23755500  1
  O  O122  1  0.31758100  0.00000000  0.72005100  1
  O  O123  1  0.16802600  0.50000000  0.70450800  1
  O  O124  1  0.24891050  0.26847150  0.90464600  1
  O  O125  1  0.43378750  0.76653050  0.55109900  1
  O  O126  1  0.07925800  0.25257000  0.54400600  1
  O  O127  1  0.32810450  0.74918250  0.04430200  1
  O  O128  1  0.18278900  0.23257200  0.05118800  1
  O  O129  1  0.49953150  0.73094250  0.40454900  1
  O  O130  1  0.31004400  0.50000000  0.72907800  1
  O  O131  1  0.25752700  0.50000000  0.57199500  1
  O  O132  1  0.26270300  0.50000000  0.24106600  1
  O  O133  1  0.32020800  0.50000000  0.39425000  1
  O  O134  1  0.42118100  0.50000000  0.87310200  1
  O  O135  1  0.42396300  0.50000000  0.20986400  1
