# generated using pymatgen
data_Li4VF6
_symmetry_space_group_name_H-M   'P 1'
_cell_length_a   9.63888000
_cell_length_b   5.29732800
_cell_length_c   10.70530831
_cell_angle_alpha   90.00000000
_cell_angle_beta   98.43715389
_cell_angle_gamma   90.00000000
_symmetry_Int_Tables_number   1
_chemical_formula_structural   Li4VF6
_chemical_formula_sum   'Li16 V4 F24'
_cell_volume   540.70053715
_cell_formula_units_Z   4
loop_
 _symmetry_equiv_pos_site_id
 _symmetry_equiv_pos_as_xyz
  1  'x, y, z'
loop_
 _atom_site_type_symbol
 _atom_site_label
 _atom_site_symmetry_multiplicity
 _atom_site_fract_x
 _atom_site_fract_y
 _atom_site_fract_z
 _atom_site_occupancy
  Li  Li0  1  0.63565050  0.63614350  0.07472400  1
  Li  Li1  1  0.81956200  0.18761400  0.17497000  1
  Li  Li2  1  0.97345800  0.80896600  0.30441400  1
  Li  Li3  1  0.97345800  0.19103400  0.80441400  1
  Li  Li4  1  0.89767100  0.35329500  0.44669900  1
  Li  Li5  1  0.63565050  0.36385650  0.57472400  1
  Li  Li6  1  0.89767100  0.64670500  0.94669900  1
  Li  Li7  1  0.81956200  0.81238600  0.67497000  1
  Li  Li8  1  0.13565050  0.13614350  0.07472400  1
  Li  Li9  1  0.31956200  0.68761400  0.17497000  1
  Li  Li10  1  0.47345800  0.30896600  0.30441400  1
  Li  Li11  1  0.47345800  0.69103400  0.80441400  1
  Li  Li12  1  0.39767100  0.85329500  0.44669900  1
  Li  Li13  1  0.13565050  0.86385650  0.57472400  1
  Li  Li14  1  0.39767100  0.14670500  0.94669900  1
  Li  Li15  1  0.31956200  0.31238600  0.67497000  1
  V  V16  1  0.66104150  0.70338250  0.35290300  1
  V  V17  1  0.66104150  0.29661750  0.85290300  1
  V  V18  1  0.16104150  0.20338250  0.35290300  1
  V  V19  1  0.16104150  0.79661750  0.85290300  1
  F  F20  1  0.78427750  0.39907450  0.03074700  1
  F  F21  1  0.78231750  0.83838250  0.21286200  1
  F  F22  1  0.75149100  0.35811900  0.30783000  1
  F  F23  1  0.50310600  0.45956500  0.94737800  1
  F  F24  1  0.55452200  0.03218200  0.40312100  1
  F  F25  1  0.51388650  0.36864650  0.69686100  1
  F  F26  1  0.78427750  0.60092550  0.53074700  1
  F  F27  1  0.50310600  0.54043500  0.44737800  1
  F  F28  1  0.51388650  0.63135350  0.19686100  1
  F  F29  1  0.55452200  0.96781800  0.90312100  1
  F  F30  1  0.78231750  0.16161750  0.71286200  1
  F  F31  1  0.75149100  0.64188100  0.80783000  1
  F  F32  1  0.28427750  0.89907450  0.03074700  1
  F  F33  1  0.28231750  0.33838250  0.21286200  1
  F  F34  1  0.25149100  0.85811900  0.30783000  1
  F  F35  1  0.00310600  0.95956500  0.94737800  1
  F  F36  1  0.05452200  0.53218200  0.40312100  1
  F  F37  1  0.01388650  0.86864650  0.69686100  1
  F  F38  1  0.28427750  0.10092550  0.53074700  1
  F  F39  1  0.00310600  0.04043500  0.44737800  1
  F  F40  1  0.01388650  0.13135350  0.19686100  1
  F  F41  1  0.05452200  0.46781800  0.90312100  1
  F  F42  1  0.28231750  0.66161750  0.71286200  1
  F  F43  1  0.25149100  0.14188100  0.80783000  1
