# generated using pymatgen
data_Mn4O7F
_symmetry_space_group_name_H-M   'P 1'
_cell_length_a   9.96579000
_cell_length_b   10.93997000
_cell_length_c   4.46117907
_cell_angle_alpha   90.00000000
_cell_angle_beta   90.16308307
_cell_angle_gamma   90.00000000
_symmetry_Int_Tables_number   1
_chemical_formula_structural   Mn4O7F
_chemical_formula_sum   'Mn16 O28 F4'
_cell_volume   486.38005711
_cell_formula_units_Z   4
loop_
 _symmetry_equiv_pos_site_id
 _symmetry_equiv_pos_as_xyz
  1  'x, y, z'
loop_
 _atom_site_type_symbol
 _atom_site_label
 _atom_site_symmetry_multiplicity
 _atom_site_fract_x
 _atom_site_fract_y
 _atom_site_fract_z
 _atom_site_occupancy
  Mn  Mn0  1  0.24374700  0.80670500  0.52305800  1
  Mn  Mn1  1  0.50000000  0.44955700  0.50000000  1
  Mn  Mn2  1  0.75625300  0.80670500  0.47694200  1
  Mn  Mn3  1  0.50000000  0.94592100  0.50000000  1
  Mn  Mn4  1  0.74449050  0.04506650  0.98574600  1
  Mn  Mn5  1  0.50000000  0.19740000  0.00000000  1
  Mn  Mn6  1  0.25550950  0.04506650  0.01425400  1
  Mn  Mn7  1  0.50000000  0.69904800  0.00000000  1
  Mn  Mn8  1  0.74374700  0.30670500  0.52305800  1
  Mn  Mn9  1  0.00000000  0.94955700  0.50000000  1
  Mn  Mn10  1  0.25625300  0.30670500  0.47694200  1
  Mn  Mn11  1  0.00000000  0.44592100  0.50000000  1
  Mn  Mn12  1  0.24449050  0.54506650  0.98574600  1
  Mn  Mn13  1  0.00000000  0.69740000  0.00000000  1
  Mn  Mn14  1  0.75550950  0.54506650  0.01425400  1
  Mn  Mn15  1  0.00000000  0.19904800  0.00000000  1
  O  O16  1  0.91127500  0.06927300  0.76858700  1
  O  O17  1  0.66345050  0.18257050  0.77528200  1
  O  O18  1  0.41479100  0.06760400  0.76834900  1
  O  O19  1  0.41430800  0.32076300  0.72817900  1
  O  O20  1  0.66492350  0.92746550  0.72446800  1
  O  O21  1  0.16206250  0.93248050  0.74069200  1
  O  O22  1  0.41242200  0.82026900  0.73472300  1
  O  O23  1  0.83793750  0.93248050  0.25930800  1
  O  O24  1  0.33507650  0.92746550  0.27553200  1
  O  O25  1  0.58569200  0.32076300  0.27182100  1
  O  O26  1  0.58757800  0.82026900  0.26527700  1
  O  O27  1  0.33654950  0.18257050  0.22471800  1
  O  O28  1  0.08872500  0.06927300  0.23141300  1
  O  O29  1  0.58520900  0.06760400  0.23165100  1
  O  O30  1  0.41127500  0.56927300  0.76858700  1
  O  O31  1  0.16345050  0.68257050  0.77528200  1
  O  O32  1  0.91479100  0.56760400  0.76834900  1
  O  O33  1  0.91430800  0.82076300  0.72817900  1
  O  O34  1  0.16492350  0.42746550  0.72446800  1
  O  O35  1  0.66206250  0.43248050  0.74069200  1
  O  O36  1  0.91242200  0.32026900  0.73472300  1
  O  O37  1  0.33793750  0.43248050  0.25930800  1
  O  O38  1  0.83507650  0.42746550  0.27553200  1
  O  O39  1  0.08569200  0.82076300  0.27182100  1
  O  O40  1  0.08757800  0.32026900  0.26527700  1
  O  O41  1  0.83654950  0.68257050  0.22471800  1
  O  O42  1  0.58872500  0.56927300  0.23141300  1
  O  O43  1  0.08520900  0.56760400  0.23165100  1
  F  F44  1  0.67584300  0.68184200  0.74017200  1
  F  F45  1  0.32415700  0.68184200  0.25982800  1
  F  F46  1  0.17584300  0.18184200  0.74017200  1
  F  F47  1  0.82415700  0.18184200  0.25982800  1
