# generated using pymatgen
data_Dy2Ge5Rh3
_symmetry_space_group_name_H-M   'P 1'
_cell_length_a   11.41357200
_cell_length_b   12.26670400
_cell_length_c   5.90790227
_cell_angle_alpha   90.00000000
_cell_angle_beta   118.36663969
_cell_angle_gamma   90.00000000
_symmetry_Int_Tables_number   1
_chemical_formula_structural   Dy2Ge5Rh3
_chemical_formula_sum   'Dy8 Ge20 Rh12'
_cell_volume   727.82773812
_cell_formula_units_Z   4
loop_
 _symmetry_equiv_pos_site_id
 _symmetry_equiv_pos_as_xyz
  1  'x, y, z'
loop_
 _atom_site_type_symbol
 _atom_site_label
 _atom_site_symmetry_multiplicity
 _atom_site_fract_x
 _atom_site_fract_y
 _atom_site_fract_z
 _atom_site_occupancy
  Dy  Dy0  1  0.26904250  0.13894050  0.76309600  1
  Dy  Dy1  1  0.73095750  0.13894050  0.73690400  1
  Dy  Dy2  1  0.73095750  0.86105950  0.23690400  1
  Dy  Dy3  1  0.26904250  0.86105950  0.26309600  1
  Dy  Dy4  1  0.76904250  0.63894050  0.76309600  1
  Dy  Dy5  1  0.23095750  0.63894050  0.73690400  1
  Dy  Dy6  1  0.23095750  0.36105950  0.23690400  1
  Dy  Dy7  1  0.76904250  0.36105950  0.26309600  1
  Ge  Ge8  1  0.50000000  0.01257700  0.75000000  1
  Ge  Ge9  1  0.50000000  0.98742300  0.25000000  1
  Ge  Ge10  1  0.50000000  0.70694700  0.75000000  1
  Ge  Ge11  1  0.50000000  0.29305300  0.25000000  1
  Ge  Ge12  1  0.82992000  0.90504400  0.83109900  1
  Ge  Ge13  1  0.17008000  0.90504400  0.66890100  1
  Ge  Ge14  1  0.17008000  0.09495600  0.16890100  1
  Ge  Ge15  1  0.82992000  0.09495600  0.33109900  1
  Ge  Ge16  1  0.50000000  0.27827400  0.75000000  1
  Ge  Ge17  1  0.50000000  0.72172600  0.25000000  1
  Ge  Ge18  1  0.00000000  0.51257700  0.75000000  1
  Ge  Ge19  1  0.00000000  0.48742300  0.25000000  1
  Ge  Ge20  1  0.00000000  0.20694700  0.75000000  1
  Ge  Ge21  1  0.00000000  0.79305300  0.25000000  1
  Ge  Ge22  1  0.32992000  0.40504400  0.83109900  1
  Ge  Ge23  1  0.67008000  0.40504400  0.66890100  1
  Ge  Ge24  1  0.67008000  0.59495600  0.16890100  1
  Ge  Ge25  1  0.32992000  0.59495600  0.33109900  1
  Ge  Ge26  1  0.00000000  0.77827400  0.75000000  1
  Ge  Ge27  1  0.00000000  0.22172600  0.25000000  1
  Rh  Rh28  1  0.59651450  0.85778650  0.62459300  1
  Rh  Rh29  1  0.40348550  0.85778650  0.87540700  1
  Rh  Rh30  1  0.40348550  0.14221350  0.37540700  1
  Rh  Rh31  1  0.59651450  0.14221350  0.12459300  1
  Rh  Rh32  1  0.50000000  0.50127200  0.75000000  1
  Rh  Rh33  1  0.50000000  0.49872800  0.25000000  1
  Rh  Rh34  1  0.09651450  0.35778650  0.62459300  1
  Rh  Rh35  1  0.90348550  0.35778650  0.87540700  1
  Rh  Rh36  1  0.90348550  0.64221350  0.37540700  1
  Rh  Rh37  1  0.09651450  0.64221350  0.12459300  1
  Rh  Rh38  1  0.00000000  0.00127200  0.75000000  1
  Rh  Rh39  1  0.00000000  0.99872800  0.25000000  1
