# generated using pymatgen
data_LiV2CrO6
_symmetry_space_group_name_H-M   'P 1'
_cell_length_a   13.15715800
_cell_length_b   8.89230200
_cell_length_c   6.06632521
_cell_angle_alpha   90.00000000
_cell_angle_beta   104.93623205
_cell_angle_gamma   90.00000000
_symmetry_Int_Tables_number   1
_chemical_formula_structural   LiV2CrO6
_chemical_formula_sum   'Li6 V12 Cr6 O36'
_cell_volume   685.76447973
_cell_formula_units_Z   6
loop_
 _symmetry_equiv_pos_site_id
 _symmetry_equiv_pos_as_xyz
  1  'x, y, z'
loop_
 _atom_site_type_symbol
 _atom_site_label
 _atom_site_symmetry_multiplicity
 _atom_site_fract_x
 _atom_site_fract_y
 _atom_site_fract_z
 _atom_site_occupancy
  Li  Li0  1  0.33011500  0.00000000  0.65734300  1
  Li  Li1  1  0.00000000  0.00000000  0.00000000  1
  Li  Li2  1  0.66988500  0.00000000  0.34265700  1
  Li  Li3  1  0.83011500  0.50000000  0.65734300  1
  Li  Li4  1  0.50000000  0.50000000  0.00000000  1
  Li  Li5  1  0.16988500  0.50000000  0.34265700  1
  V  V6  1  0.33510700  0.32996800  0.16754700  1
  V  V7  1  0.66489300  0.32996800  0.83245300  1
  V  V8  1  0.34015500  0.00000000  0.16616300  1
  V  V9  1  0.33510700  0.67003200  0.16754700  1
  V  V10  1  0.65984500  0.00000000  0.83383700  1
  V  V11  1  0.66489300  0.67003200  0.83245300  1
  V  V12  1  0.83510700  0.82996800  0.16754700  1
  V  V13  1  0.16489300  0.82996800  0.83245300  1
  V  V14  1  0.84015500  0.50000000  0.16616300  1
  V  V15  1  0.83510700  0.17003200  0.16754700  1
  V  V16  1  0.15984500  0.50000000  0.83383700  1
  V  V17  1  0.16489300  0.17003200  0.83245300  1
  Cr  Cr18  1  0.50000000  0.17184600  0.50000000  1
  Cr  Cr19  1  0.50000000  0.82815400  0.50000000  1
  Cr  Cr20  1  0.00000000  0.00000000  0.50000000  1
  Cr  Cr21  1  0.00000000  0.67184600  0.50000000  1
  Cr  Cr22  1  0.00000000  0.32815400  0.50000000  1
  Cr  Cr23  1  0.50000000  0.50000000  0.50000000  1
  O  O24  1  0.51443800  0.33777900  0.73297900  1
  O  O25  1  0.17941400  0.00000000  0.05336300  1
  O  O26  1  0.67656450  0.16591250  0.05808800  1
  O  O27  1  0.48556200  0.33777900  0.26702100  1
  O  O28  1  0.16280600  0.00000000  0.62582600  1
  O  O29  1  0.65841900  0.16558700  0.61493500  1
  O  O30  1  0.32343550  0.16591250  0.94191200  1
  O  O31  1  0.32343550  0.83408750  0.94191200  1
  O  O32  1  0.82058600  0.00000000  0.94663700  1
  O  O33  1  0.34158100  0.16558700  0.38506500  1
  O  O34  1  0.34158100  0.83441300  0.38506500  1
  O  O35  1  0.83719400  0.00000000  0.37417400  1
  O  O36  1  0.51293000  0.00000000  0.72833900  1
  O  O37  1  0.51443800  0.66222100  0.73297900  1
  O  O38  1  0.67656450  0.83408750  0.05808800  1
  O  O39  1  0.48707000  0.00000000  0.27166100  1
  O  O40  1  0.48556200  0.66222100  0.26702100  1
  O  O41  1  0.65841900  0.83441300  0.61493500  1
  O  O42  1  0.01443800  0.83777900  0.73297900  1
  O  O43  1  0.67941400  0.50000000  0.05336300  1
  O  O44  1  0.17656450  0.66591250  0.05808800  1
  O  O45  1  0.98556200  0.83777900  0.26702100  1
  O  O46  1  0.66280600  0.50000000  0.62582600  1
  O  O47  1  0.15841900  0.66558700  0.61493500  1
  O  O48  1  0.82343550  0.66591250  0.94191200  1
  O  O49  1  0.82343550  0.33408750  0.94191200  1
  O  O50  1  0.32058600  0.50000000  0.94663700  1
  O  O51  1  0.84158100  0.66558700  0.38506500  1
  O  O52  1  0.84158100  0.33441300  0.38506500  1
  O  O53  1  0.33719400  0.50000000  0.37417400  1
  O  O54  1  0.01293000  0.50000000  0.72833900  1
  O  O55  1  0.01443800  0.16222100  0.73297900  1
  O  O56  1  0.17656450  0.33408750  0.05808800  1
  O  O57  1  0.98707000  0.50000000  0.27166100  1
  O  O58  1  0.98556200  0.16222100  0.26702100  1
  O  O59  1  0.15841900  0.33441300  0.61493500  1
