# generated using pymatgen
data_V3CoO8
_symmetry_space_group_name_H-M   'P 1'
_cell_length_a   8.33580613
_cell_length_b   8.34244102
_cell_length_c   8.34562463
_cell_angle_alpha   90.00000000
_cell_angle_beta   90.31673604
_cell_angle_gamma   90.00000000
_symmetry_Int_Tables_number   1
_chemical_formula_structural   V3CoO8
_chemical_formula_sum   'V12 Co4 O32'
_cell_volume   580.35397251
_cell_formula_units_Z   4
loop_
 _symmetry_equiv_pos_site_id
 _symmetry_equiv_pos_as_xyz
  1  'x, y, z'
loop_
 _atom_site_type_symbol
 _atom_site_label
 _atom_site_symmetry_multiplicity
 _atom_site_fract_x
 _atom_site_fract_y
 _atom_site_fract_z
 _atom_site_occupancy
  V  V0  1  0.87668400  0.87026900  0.14447550  1
  V  V1  1  0.12092800  0.11717800  0.12435250  1
  V  V2  1  0.39810300  0.36351400  0.11733850  1
  V  V3  1  0.60189700  0.86351400  0.88266150  1
  V  V4  1  0.87907200  0.61717800  0.87564750  1
  V  V5  1  0.12331600  0.37026900  0.85552450  1
  V  V6  1  0.62693400  0.12135400  0.64350050  1
  V  V7  1  0.37355700  0.89110100  0.60688450  1
  V  V8  1  0.11023900  0.63133300  0.61866950  1
  V  V9  1  0.88976100  0.13133300  0.38133050  1
  V  V10  1  0.62644300  0.39110100  0.39311550  1
  V  V11  1  0.37306600  0.62135400  0.35649950  1
  Co  Co12  1  0.00228800  0.49501200  0.24551250  1
  Co  Co13  1  0.99771200  0.99501200  0.75448750  1
  Co  Co14  1  0.49282200  0.50647100  0.74877550  1
  Co  Co15  1  0.50717800  0.00647100  0.25122450  1
  O  O16  1  0.36127900  0.60021400  0.15111750  1
  O  O17  1  0.60005200  0.36716200  0.14056650  1
  O  O18  1  0.88368900  0.10958900  0.14415850  1
  O  O19  1  0.10047200  0.90426100  0.11569050  1
  O  O20  1  0.35949000  0.14663400  0.13391350  1
  O  O21  1  0.13590000  0.35713500  0.11275850  1
  O  O22  1  0.88634300  0.65430500  0.11641850  1
  O  O23  1  0.64386300  0.88853300  0.09977850  1
  O  O24  1  0.35613700  0.38853300  0.90022150  1
  O  O25  1  0.11365700  0.15430500  0.88358150  1
  O  O26  1  0.86410000  0.85713500  0.88724150  1
  O  O27  1  0.64051000  0.64663400  0.86608650  1
  O  O28  1  0.89952800  0.40426100  0.88430950  1
  O  O29  1  0.11631100  0.60958900  0.85584150  1
  O  O30  1  0.39994800  0.86716200  0.85943350  1
  O  O31  1  0.63872100  0.10021400  0.84888250  1
  O  O32  1  0.13446600  0.39438200  0.65123050  1
  O  O33  1  0.90466700  0.63523800  0.63858650  1
  O  O34  1  0.60285100  0.88318700  0.64115850  1
  O  O35  1  0.38777700  0.09585100  0.61802450  1
  O  O36  1  0.15066100  0.85621700  0.63910050  1
  O  O37  1  0.36190100  0.63910800  0.60717450  1
  O  O38  1  0.61500200  0.36046200  0.60743250  1
  O  O39  1  0.86579500  0.11116900  0.59742950  1
  O  O40  1  0.13420500  0.61116900  0.40257050  1
  O  O41  1  0.38499800  0.86046200  0.39256750  1
  O  O42  1  0.63809900  0.13910800  0.39282550  1
  O  O43  1  0.84933900  0.35621700  0.36089950  1
  O  O44  1  0.61222300  0.59585100  0.38197550  1
  O  O45  1  0.39714900  0.38318700  0.35884150  1
  O  O46  1  0.09533300  0.13523800  0.36141350  1
  O  O47  1  0.86553400  0.89438200  0.34876950  1
