# generated using pymatgen
data_Cr2S3
_symmetry_space_group_name_H-M   'P 1'
_cell_length_a   5.95376879
_cell_length_b   5.95376879
_cell_length_c   10.94272300
_cell_angle_alpha   90.00000000
_cell_angle_beta   90.00000000
_cell_angle_gamma   120.00000000
_symmetry_Int_Tables_number   1
_chemical_formula_structural   Cr2S3
_chemical_formula_sum   'Cr8 S12'
_cell_volume   335.92317577
_cell_formula_units_Z   4
loop_
 _symmetry_equiv_pos_site_id
 _symmetry_equiv_pos_as_xyz
  1  'x, y, z'
loop_
 _atom_site_type_symbol
 _atom_site_label
 _atom_site_symmetry_multiplicity
 _atom_site_fract_x
 _atom_site_fract_y
 _atom_site_fract_z
 _atom_site_occupancy
  Cr  Cr0  1  0.33333333  0.66666667  0.74205600  1
  Cr  Cr1  1  0.33333333  0.66666667  0.01122900  1
  Cr  Cr2  1  0.00000000  0.00000000  0.99544700  1
  Cr  Cr3  1  0.66666667  0.33333333  0.25114400  1
  Cr  Cr4  1  0.66666667  0.33333333  0.50501000  1
  Cr  Cr5  1  0.33333333  0.66666667  0.49517000  1
  Cr  Cr6  1  0.00000000  0.00000000  0.49967900  1
  Cr  Cr7  1  0.66666667  0.33333333  0.99491100  1
  S  S8  1  0.33746233  0.00760467  0.37977400  1
  S  S9  1  0.01351133  0.34289167  0.87789600  1
  S  S10  1  0.32946733  0.33573167  0.62056000  1
  S  S11  1  0.99239533  0.32985767  0.37977400  1
  S  S12  1  0.65710833  0.67061967  0.87789600  1
  S  S13  1  0.66426833  0.99373567  0.62056000  1
  S  S14  1  0.00626433  0.67053267  0.62056000  1
  S  S15  1  0.67373433  0.00931267  0.12355500  1
  S  S16  1  0.67014233  0.66253767  0.37977400  1
  S  S17  1  0.32938033  0.98648867  0.87789600  1
  S  S18  1  0.99068733  0.66442167  0.12355500  1
  S  S19  1  0.33557833  0.32626567  0.12355500  1
