# generated using pymatgen
data_CrSbO4
_symmetry_space_group_name_H-M   'P 1'
_cell_length_a   6.06815000
_cell_length_b   6.25837200
_cell_length_c   8.64782400
_cell_angle_alpha   90.00000000
_cell_angle_beta   90.00000000
_cell_angle_gamma   90.00000000
_symmetry_Int_Tables_number   1
_chemical_formula_structural   CrSbO4
_chemical_formula_sum   'Cr4 Sb4 O16'
_cell_volume   328.41616406
_cell_formula_units_Z   4
loop_
 _symmetry_equiv_pos_site_id
 _symmetry_equiv_pos_as_xyz
  1  'x, y, z'
loop_
 _atom_site_type_symbol
 _atom_site_label
 _atom_site_symmetry_multiplicity
 _atom_site_fract_x
 _atom_site_fract_y
 _atom_site_fract_z
 _atom_site_occupancy
  Cr  Cr0  1  0.75000000  0.75000000  0.25000000  1
  Cr  Cr1  1  0.25000000  0.75000000  0.25000000  1
  Cr  Cr2  1  0.25000000  0.25000000  0.75000000  1
  Cr  Cr3  1  0.75000000  0.25000000  0.75000000  1
  Sb  Sb4  1  0.50000000  0.00000000  0.00000000  1
  Sb  Sb5  1  0.00000000  0.00000000  0.50000000  1
  Sb  Sb6  1  0.00000000  0.50000000  0.50000000  1
  Sb  Sb7  1  0.50000000  0.50000000  0.00000000  1
  O  O8  1  0.50000000  0.96498650  0.22942050  1
  O  O9  1  0.22339250  0.25000000  0.51084650  1
  O  O10  1  0.77660750  0.25000000  0.51084650  1
  O  O11  1  0.00000000  0.03501350  0.72942050  1
  O  O12  1  0.00000000  0.96498650  0.27057950  1
  O  O13  1  0.77660750  0.75000000  0.48915350  1
  O  O14  1  0.22339250  0.75000000  0.48915350  1
  O  O15  1  0.50000000  0.03501350  0.77057950  1
  O  O16  1  0.00000000  0.46498650  0.72942050  1
  O  O17  1  0.72339250  0.75000000  0.01084650  1
  O  O18  1  0.27660750  0.75000000  0.01084650  1
  O  O19  1  0.50000000  0.53501350  0.22942050  1
  O  O20  1  0.50000000  0.46498650  0.77057950  1
  O  O21  1  0.27660750  0.25000000  0.98915350  1
  O  O22  1  0.72339250  0.25000000  0.98915350  1
  O  O23  1  0.00000000  0.53501350  0.27057950  1
