# generated using pymatgen
data_Li3Ni(SbO3)4
_symmetry_space_group_name_H-M   'P 1'
_cell_length_a   5.23737225
_cell_length_b   5.57677700
_cell_length_c   7.65249143
_cell_angle_alpha   94.79622534
_cell_angle_beta   90.00371564
_cell_angle_gamma   90.10290096
_symmetry_Int_Tables_number   1
_chemical_formula_structural   Li3Ni(SbO3)4
_chemical_formula_sum   'Li3 Ni1 Sb4 O12'
_cell_volume   222.72832714
_cell_formula_units_Z   1
loop_
 _symmetry_equiv_pos_site_id
 _symmetry_equiv_pos_as_xyz
  1  'x, y, z'
loop_
 _atom_site_type_symbol
 _atom_site_label
 _atom_site_symmetry_multiplicity
 _atom_site_fract_x
 _atom_site_fract_y
 _atom_site_fract_z
 _atom_site_occupancy
  Li  Li0  1  0.50080450  0.06192750  0.21300700  1
  Li  Li1  1  0.99989300  0.56663500  0.21575150  1
  Li  Li2  1  0.49989700  0.05938300  0.72083000  1
  Ni  Ni3  1  0.00084950  0.59215350  0.70808000  1
  Sb  Sb4  1  0.99968450  0.99385950  0.00921250  1
  Sb  Sb5  1  0.49961600  0.48587400  0.50049100  1
  Sb  Sb6  1  0.99675550  0.99820250  0.49973850  1
  Sb  Sb7  1  0.50296700  0.48733400  0.00683400  1
  O  O8  1  0.29867500  0.78468000  0.58885900  1
  O  O9  1  0.13672650  0.96326450  0.25531850  1
  O  O10  1  0.32840050  0.15831250  0.95139600  1
  O  O11  1  0.19036950  0.29787750  0.59049100  1
  O  O12  1  0.80402650  0.29032650  0.08944250  1
  O  O13  1  0.36375800  0.46497100  0.25509600  1
  O  O14  1  0.64283050  0.45744050  0.75782050  1
  O  O15  1  0.17291800  0.65666800  0.94889550  1
  O  O16  1  0.83477950  0.65132850  0.45874350  1
  O  O17  1  0.69887250  0.78748850  0.08887750  1
  O  O18  1  0.86781700  0.94972700  0.75912600  1
  O  O19  1  0.66036000  0.15174400  0.45238700  1
