# generated using pymatgen
data_Li8CoO5F
_symmetry_space_group_name_H-M   'P 1'
_cell_length_a   5.29605775
_cell_length_b   5.55366858
_cell_length_c   5.79624544
_cell_angle_alpha   93.82822748
_cell_angle_beta   112.09750503
_cell_angle_gamma   116.11527771
_symmetry_Int_Tables_number   1
_chemical_formula_structural   Li8CoO5F
_chemical_formula_sum   'Li8 Co1 O5 F1'
_cell_volume   136.18965564
_cell_formula_units_Z   1
loop_
 _symmetry_equiv_pos_site_id
 _symmetry_equiv_pos_as_xyz
  1  'x, y, z'
loop_
 _atom_site_type_symbol
 _atom_site_label
 _atom_site_symmetry_multiplicity
 _atom_site_fract_x
 _atom_site_fract_y
 _atom_site_fract_z
 _atom_site_occupancy
  Li  Li0  1  0.25912825  0.47511025  0.35944475  1
  Li  Li1  1  0.13220650  0.23612350  0.66464050  1
  Li  Li2  1  0.40266600  0.89203675  0.63779450  1
  Li  Li3  1  0.75097450  0.37345675  0.03499100  1
  Li  Li4  1  0.27402725  0.66841800  0.96001225  1
  Li  Li5  1  0.57122200  0.08760400  0.34240800  1
  Li  Li6  1  0.90167350  0.79325925  0.36261300  1
  Li  Li7  1  0.74909500  0.51277000  0.64846200  1
  Co  Co8  1  0.92067950  0.95556725  0.95916900  1
  O  O9  1  0.49902675  0.60432850  0.76303675  1
  O  O10  1  0.89028950  0.10481325  0.24154000  1
  O  O11  1  0.16931425  0.75179575  0.23848375  1
  O  O12  1  0.81190600  0.22085850  0.75023500  1
  O  O13  1  0.11094775  0.89870150  0.75912875  1
  F  F14  1  0.55684375  0.42515825  0.27803925  1
