# generated using pymatgen
data_Fe10O9F11
_symmetry_space_group_name_H-M   'P 1'
_cell_length_a   4.76085500
_cell_length_b   15.42073100
_cell_length_c   4.77491683
_cell_angle_alpha   90.00000000
_cell_angle_beta   92.99103820
_cell_angle_gamma   90.00000000
_symmetry_Int_Tables_number   1
_chemical_formula_structural   Fe10O9F11
_chemical_formula_sum   'Fe10 O9 F11'
_cell_volume   350.07708825
_cell_formula_units_Z   1
loop_
 _symmetry_equiv_pos_site_id
 _symmetry_equiv_pos_as_xyz
  1  'x, y, z'
loop_
 _atom_site_type_symbol
 _atom_site_label
 _atom_site_symmetry_multiplicity
 _atom_site_fract_x
 _atom_site_fract_y
 _atom_site_fract_z
 _atom_site_occupancy
  Fe  Fe0  1  0.99397600  0.59664000  0.99408100  1
  Fe  Fe1  1  0.99397600  0.40336000  0.99408100  1
  Fe  Fe2  1  0.03229400  0.19709000  0.01176400  1
  Fe  Fe3  1  0.04175800  0.00000000  0.98979100  1
  Fe  Fe4  1  0.03229400  0.80291000  0.01176400  1
  Fe  Fe5  1  0.49786200  0.50000000  0.49817500  1
  Fe  Fe6  1  0.45132500  0.10331000  0.50640300  1
  Fe  Fe7  1  0.49212700  0.31145900  0.48433200  1
  Fe  Fe8  1  0.45132500  0.89669000  0.50640300  1
  Fe  Fe9  1  0.49212700  0.68854100  0.48433200  1
  O  O10  1  0.19342400  0.10144600  0.81083400  1
  O  O11  1  0.19342400  0.89855400  0.81083400  1
  O  O12  1  0.29531400  0.59749500  0.29318200  1
  O  O13  1  0.29531400  0.40250500  0.29318200  1
  O  O14  1  0.31104200  0.20344500  0.31280600  1
  O  O15  1  0.30737200  0.00000000  0.31366700  1
  O  O16  1  0.31104200  0.79655500  0.31280600  1
  O  O17  1  0.69625700  0.60004100  0.69351700  1
  O  O18  1  0.69625700  0.39995900  0.69351700  1
  F  F19  1  0.19780700  0.50000000  0.79341600  1
  F  F20  1  0.19631200  0.29657800  0.80416300  1
  F  F21  1  0.19631200  0.70342200  0.80416300  1
  F  F22  1  0.70478500  0.20155800  0.70649600  1
  F  F23  1  0.69629300  0.00000000  0.70253800  1
  F  F24  1  0.70478500  0.79844200  0.70649600  1
  F  F25  1  0.79347800  0.50000000  0.19688100  1
  F  F26  1  0.80841400  0.09994700  0.19421800  1
  F  F27  1  0.80744400  0.29509600  0.19097100  1
  F  F28  1  0.80744400  0.70490400  0.19097100  1
  F  F29  1  0.80841400  0.90005300  0.19421800  1
