# generated using pymatgen
data_Li4V7O9F7
_symmetry_space_group_name_H-M   'P 1'
_cell_length_a   10.43860800
_cell_length_b   6.02109400
_cell_length_c   10.62887318
_cell_angle_alpha   90.00000000
_cell_angle_beta   109.49718777
_cell_angle_gamma   90.00000000
_symmetry_Int_Tables_number   1
_chemical_formula_structural   Li4V7O9F7
_chemical_formula_sum   'Li8 V14 O18 F14'
_cell_volume   629.73716000
_cell_formula_units_Z   2
loop_
 _symmetry_equiv_pos_site_id
 _symmetry_equiv_pos_as_xyz
  1  'x, y, z'
loop_
 _atom_site_type_symbol
 _atom_site_label
 _atom_site_symmetry_multiplicity
 _atom_site_fract_x
 _atom_site_fract_y
 _atom_site_fract_z
 _atom_site_occupancy
  Li  Li0  1  0.49411500  0.50000000  0.00963600  1
  Li  Li1  1  0.38453600  0.00000000  0.11825800  1
  Li  Li2  1  0.37692500  0.50000000  0.62181400  1
  Li  Li3  1  0.49042700  0.00000000  0.50859900  1
  Li  Li4  1  0.99411500  0.00000000  0.00963600  1
  Li  Li5  1  0.88453600  0.50000000  0.11825800  1
  Li  Li6  1  0.87692500  0.00000000  0.62181400  1
  Li  Li7  1  0.99042700  0.50000000  0.50859900  1
  V  V8  1  0.20402900  0.50000000  0.07288000  1
  V  V9  1  0.17795950  0.23717550  0.30766500  1
  V  V10  1  0.69164600  0.74826200  0.80689200  1
  V  V11  1  0.17795950  0.76282450  0.30766500  1
  V  V12  1  0.42858900  0.00000000  0.80106200  1
  V  V13  1  0.68666300  0.50000000  0.56411000  1
  V  V14  1  0.69164600  0.25173800  0.80689200  1
  V  V15  1  0.70402900  0.00000000  0.07288000  1
  V  V16  1  0.67795950  0.73717550  0.30766500  1
  V  V17  1  0.19164600  0.24826200  0.80689200  1
  V  V18  1  0.67795950  0.26282450  0.30766500  1
  V  V19  1  0.92858900  0.50000000  0.80106200  1
  V  V20  1  0.18666300  0.00000000  0.56411000  1
  V  V21  1  0.19164600  0.75173800  0.80689200  1
  O  O22  1  0.57161800  0.00000000  0.71490300  1
  O  O23  1  0.78949800  0.00000000  0.93549800  1
  O  O24  1  0.28603800  0.00000000  0.43177700  1
  O  O25  1  0.58970200  0.00000000  0.18851800  1
  O  O26  1  0.58343600  0.50000000  0.19770900  1
  O  O27  1  0.80722750  0.72648650  0.68887200  1
  O  O28  1  0.80722750  0.27351350  0.68887200  1
  O  O29  1  0.58108800  0.50000000  0.69239400  1
  O  O30  1  0.81021800  0.50000000  0.91649100  1
  O  O31  1  0.07161800  0.50000000  0.71490300  1
  O  O32  1  0.28949800  0.50000000  0.93549800  1
  O  O33  1  0.78603800  0.50000000  0.43177700  1
  O  O34  1  0.08970200  0.50000000  0.18851800  1
  O  O35  1  0.08343600  0.00000000  0.19770900  1
  O  O36  1  0.30722750  0.22648650  0.68887200  1
  O  O37  1  0.30722750  0.77351350  0.68887200  1
  O  O38  1  0.08108800  0.00000000  0.69239400  1
  O  O39  1  0.31021800  0.00000000  0.91649100  1
  F  F40  1  0.57161500  0.74874400  0.44086500  1
  F  F41  1  0.30565200  0.74767800  0.18693100  1
  F  F42  1  0.28928100  0.50000000  0.42244900  1
  F  F43  1  0.56906250  0.23208950  0.93947700  1
  F  F44  1  0.56906250  0.76791050  0.93947700  1
  F  F45  1  0.57161500  0.25125600  0.44086500  1
  F  F46  1  0.30565200  0.25232200  0.18693100  1
  F  F47  1  0.07161500  0.24874400  0.44086500  1
  F  F48  1  0.80565200  0.24767800  0.18693100  1
  F  F49  1  0.78928100  0.00000000  0.42244900  1
  F  F50  1  0.06906250  0.73208950  0.93947700  1
  F  F51  1  0.06906250  0.26791050  0.93947700  1
  F  F52  1  0.07161500  0.75125600  0.44086500  1
  F  F53  1  0.80565200  0.75232200  0.18693100  1
