# generated using pymatgen
data_FeBO3
_symmetry_space_group_name_H-M   'P 1'
_cell_length_a   4.98875798
_cell_length_b   8.65785400
_cell_length_c   5.45618250
_cell_angle_alpha   90.00000000
_cell_angle_beta   93.91656595
_cell_angle_gamma   90.00000000
_symmetry_Int_Tables_number   1
_chemical_formula_structural   FeBO3
_chemical_formula_sum   'Fe4 B4 O12'
_cell_volume   235.11272346
_cell_formula_units_Z   4
loop_
 _symmetry_equiv_pos_site_id
 _symmetry_equiv_pos_as_xyz
  1  'x, y, z'
loop_
 _atom_site_type_symbol
 _atom_site_label
 _atom_site_symmetry_multiplicity
 _atom_site_fract_x
 _atom_site_fract_y
 _atom_site_fract_z
 _atom_site_occupancy
  Fe  Fe0  1  0.00000000  0.00000000  0.50000000  1
  Fe  Fe1  1  0.00000000  0.00000000  0.00000000  1
  Fe  Fe2  1  0.50000000  0.50000000  0.50000000  1
  Fe  Fe3  1  0.50000000  0.50000000  0.00000000  1
  B  B4  1  0.00000000  0.66669500  0.25000000  1
  B  B5  1  0.50000000  0.83330500  0.75000000  1
  B  B6  1  0.50000000  0.16669500  0.25000000  1
  B  B7  1  0.00000000  0.33330500  0.75000000  1
  O  O8  1  0.00000000  0.82627250  0.25000000  1
  O  O9  1  0.50000000  0.67372750  0.75000000  1
  O  O10  1  0.76192400  0.58704300  0.26553125  1
  O  O11  1  0.23807600  0.58704300  0.23446875  1
  O  O12  1  0.26192400  0.91295700  0.76553125  1
  O  O13  1  0.73807600  0.91295700  0.73446875  1
  O  O14  1  0.50000000  0.32627250  0.25000000  1
  O  O15  1  0.00000000  0.17372750  0.75000000  1
  O  O16  1  0.26192400  0.08704300  0.26553125  1
  O  O17  1  0.73807600  0.08704300  0.23446875  1
  O  O18  1  0.76192400  0.41295700  0.76553125  1
  O  O19  1  0.23807600  0.41295700  0.73446875  1
