# generated using pymatgen
data_Li4Ni7(PO4)6
_symmetry_space_group_name_H-M   'P 1'
_cell_length_a   10.67184800
_cell_length_b   13.91316800
_cell_length_c   6.41295202
_cell_angle_alpha   90.00000000
_cell_angle_beta   104.54625766
_cell_angle_gamma   90.00000000
_symmetry_Int_Tables_number   1
_chemical_formula_structural   Li4Ni7(PO4)6
_chemical_formula_sum   'Li8 Ni14 P12 O48'
_cell_volume   921.66779486
_cell_formula_units_Z   2
loop_
 _symmetry_equiv_pos_site_id
 _symmetry_equiv_pos_as_xyz
  1  'x, y, z'
loop_
 _atom_site_type_symbol
 _atom_site_label
 _atom_site_symmetry_multiplicity
 _atom_site_fract_x
 _atom_site_fract_y
 _atom_site_fract_z
 _atom_site_occupancy
  Li  Li0  1  0.26841000  0.00000000  0.53573900  1
  Li  Li1  1  0.60482300  0.85821200  0.52998700  1
  Li  Li2  1  0.60482300  0.14178800  0.52998700  1
  Li  Li3  1  0.94195000  0.00000000  0.50516300  1
  Li  Li4  1  0.76841000  0.50000000  0.53573900  1
  Li  Li5  1  0.10482300  0.35821200  0.52998700  1
  Li  Li6  1  0.10482300  0.64178800  0.52998700  1
  Li  Li7  1  0.44195000  0.50000000  0.50516300  1
  Ni  Ni8  1  0.32868250  0.69274950  0.18445400  1
  Ni  Ni9  1  0.32868250  0.30725050  0.18445400  1
  Ni  Ni10  1  0.50110800  0.87608000  0.99886400  1
  Ni  Ni11  1  0.50110800  0.12392000  0.99886400  1
  Ni  Ni12  1  0.00016100  0.00000000  0.00297200  1
  Ni  Ni13  1  0.67035300  0.68686900  0.81608200  1
  Ni  Ni14  1  0.67035300  0.31313100  0.81608200  1
  Ni  Ni15  1  0.82868250  0.19274950  0.18445400  1
  Ni  Ni16  1  0.82868250  0.80725050  0.18445400  1
  Ni  Ni17  1  0.00110800  0.37608000  0.99886400  1
  Ni  Ni18  1  0.00110800  0.62392000  0.99886400  1
  Ni  Ni19  1  0.50016100  0.50000000  0.00297200  1
  Ni  Ni20  1  0.17035300  0.18686900  0.81608200  1
  Ni  Ni21  1  0.17035300  0.81313100  0.81608200  1
  P  P22  1  0.40615550  0.69070650  0.71224000  1
  P  P23  1  0.40615550  0.30929350  0.71224000  1
  P  P24  1  0.31527600  0.00000000  0.04677300  1
  P  P25  1  0.69119200  0.00000000  0.95493800  1
  P  P26  1  0.59637100  0.68716000  0.28622000  1
  P  P27  1  0.59637100  0.31284000  0.28622000  1
  P  P28  1  0.90615550  0.19070650  0.71224000  1
  P  P29  1  0.90615550  0.80929350  0.71224000  1
  P  P30  1  0.81527600  0.50000000  0.04677300  1
  P  P31  1  0.19119200  0.50000000  0.95493800  1
  P  P32  1  0.09637100  0.18716000  0.28622000  1
  P  P33  1  0.09637100  0.81284000  0.28622000  1
  O  O34  1  0.31061700  0.91176400  0.89109600  1
  O  O35  1  0.31061700  0.08823600  0.89109600  1
  O  O36  1  0.20926000  0.00000000  0.16790900  1
  O  O37  1  0.31502150  0.29162550  0.86211400  1
  O  O38  1  0.31502150  0.70837450  0.86211400  1
  O  O39  1  0.50404450  0.39626750  0.77558300  1
  O  O40  1  0.50404450  0.60373250  0.77558300  1
  O  O41  1  0.50154500  0.78032200  0.73607400  1
  O  O42  1  0.50154500  0.21967800  0.73607400  1
  O  O43  1  0.45623700  0.00000000  0.19356700  1
  O  O44  1  0.55689300  0.00000000  0.78418200  1
  O  O45  1  0.49121850  0.39402650  0.21727100  1
  O  O46  1  0.49121850  0.60597350  0.21727100  1
  O  O47  1  0.51146900  0.78222700  0.27142100  1
  O  O48  1  0.51146900  0.21777300  0.27142100  1
  O  O49  1  0.17720450  0.16207750  0.51144100  1
  O  O50  1  0.17720450  0.83792250  0.51144100  1
  O  O51  1  0.80468700  0.00000000  0.85202900  1
  O  O52  1  0.68703850  0.70253050  0.13529000  1
  O  O53  1  0.68703850  0.29746950  0.13529000  1
  O  O54  1  0.68926900  0.90899600  0.09864800  1
  O  O55  1  0.68926900  0.09100400  0.09864800  1
  O  O56  1  0.82054500  0.83349700  0.48873700  1
  O  O57  1  0.82054500  0.16650300  0.48873700  1
  O  O58  1  0.81061700  0.41176400  0.89109600  1
  O  O59  1  0.81061700  0.58823600  0.89109600  1
  O  O60  1  0.70926000  0.50000000  0.16790900  1
  O  O61  1  0.81502150  0.79162550  0.86211400  1
  O  O62  1  0.81502150  0.20837450  0.86211400  1
  O  O63  1  0.00404450  0.89626750  0.77558300  1
  O  O64  1  0.00404450  0.10373250  0.77558300  1
  O  O65  1  0.00154500  0.28032200  0.73607400  1
  O  O66  1  0.00154500  0.71967800  0.73607400  1
  O  O67  1  0.95623700  0.50000000  0.19356700  1
  O  O68  1  0.05689300  0.50000000  0.78418200  1
  O  O69  1  0.99121850  0.89402650  0.21727100  1
  O  O70  1  0.99121850  0.10597350  0.21727100  1
  O  O71  1  0.01146900  0.28222700  0.27142100  1
  O  O72  1  0.01146900  0.71777300  0.27142100  1
  O  O73  1  0.67720450  0.66207750  0.51144100  1
  O  O74  1  0.67720450  0.33792250  0.51144100  1
  O  O75  1  0.30468700  0.50000000  0.85202900  1
  O  O76  1  0.18703850  0.20253050  0.13529000  1
  O  O77  1  0.18703850  0.79746950  0.13529000  1
  O  O78  1  0.18926900  0.40899600  0.09864800  1
  O  O79  1  0.18926900  0.59100400  0.09864800  1
  O  O80  1  0.32054500  0.33349700  0.48873700  1
  O  O81  1  0.32054500  0.66650300  0.48873700  1
