# generated using pymatgen
data_LiV3OF11
_symmetry_space_group_name_H-M   'P 1'
_cell_length_a   5.41180800
_cell_length_b   5.24035300
_cell_length_c   15.37962900
_cell_angle_alpha   90.00000000
_cell_angle_beta   100.06829032
_cell_angle_gamma   90.00000000
_symmetry_Int_Tables_number   1
_chemical_formula_structural   LiV3OF11
_chemical_formula_sum   'Li2 V6 O2 F22'
_cell_volume   429.44608776
_cell_formula_units_Z   2
loop_
 _symmetry_equiv_pos_site_id
 _symmetry_equiv_pos_as_xyz
  1  'x, y, z'
loop_
 _atom_site_type_symbol
 _atom_site_label
 _atom_site_symmetry_multiplicity
 _atom_site_fract_x
 _atom_site_fract_y
 _atom_site_fract_z
 _atom_site_occupancy
  Li  Li0  1  0.03312500  0.21004000  0.22991500  1
  Li  Li1  1  0.53312500  0.78996000  0.22991500  1
  V  V2  1  0.14832900  0.71860800  0.34019800  1
  V  V3  1  0.99867900  0.24939100  0.99681300  1
  V  V4  1  0.33341000  0.25019900  0.66680000  1
  V  V5  1  0.64832900  0.28139200  0.34019800  1
  V  V6  1  0.49867900  0.75060900  0.99681300  1
  V  V7  1  0.83341000  0.74980100  0.66680000  1
  O  O8  1  0.35445000  0.45211400  0.30922100  1
  O  O9  1  0.85445000  0.54788600  0.30922100  1
  F  F10  1  0.01930600  0.44357600  0.64333600  1
  F  F11  1  0.18578300  0.55618000  0.97590500  1
  F  F12  1  0.14825300  0.94450600  0.69062200  1
  F  F13  1  0.04217800  0.33509100  0.11494600  1
  F  F14  1  0.37497300  0.33699100  0.77970600  1
  F  F15  1  0.22076800  0.67145400  0.45486500  1
  F  F16  1  0.29582500  0.16664200  0.55415800  1
  F  F17  1  0.46071900  0.84046000  0.88445500  1
  F  F18  1  0.15097400  0.85669100  0.22445300  1
  F  F19  1  0.51930600  0.55642400  0.64333600  1
  F  F20  1  0.68578300  0.44382000  0.97590500  1
  F  F21  1  0.48128300  0.95287200  0.35582700  1
  F  F22  1  0.31283300  0.05330000  0.02389900  1
  F  F23  1  0.64825300  0.05549400  0.69062200  1
  F  F24  1  0.54217800  0.66490900  0.11494600  1
  F  F25  1  0.87497300  0.66300900  0.77970600  1
  F  F26  1  0.72076800  0.32854600  0.45486500  1
  F  F27  1  0.79582500  0.83335800  0.55415800  1
  F  F28  1  0.96071900  0.15954000  0.88445500  1
  F  F29  1  0.65097400  0.14330900  0.22445300  1
  F  F30  1  0.98128300  0.04712800  0.35582700  1
  F  F31  1  0.81283300  0.94670000  0.02389900  1
