# generated using pymatgen
data_LiMnNbO4
_symmetry_space_group_name_H-M   'P 1'
_cell_length_a   6.20908500
_cell_length_b   6.20908500
_cell_length_c   8.77325700
_cell_angle_alpha   90.00000000
_cell_angle_beta   90.00000000
_cell_angle_gamma   90.00000000
_symmetry_Int_Tables_number   1
_chemical_formula_structural   LiMnNbO4
_chemical_formula_sum   'Li4 Mn4 Nb4 O16'
_cell_volume   338.23306570
_cell_formula_units_Z   4
loop_
 _symmetry_equiv_pos_site_id
 _symmetry_equiv_pos_as_xyz
  1  'x, y, z'
loop_
 _atom_site_type_symbol
 _atom_site_label
 _atom_site_symmetry_multiplicity
 _atom_site_fract_x
 _atom_site_fract_y
 _atom_site_fract_z
 _atom_site_occupancy
  Li  Li0  1  0.00000000  0.22690650  0.00000000  1
  Li  Li1  1  0.00000000  0.77309350  0.50000000  1
  Li  Li2  1  0.22690650  0.00000000  0.25000000  1
  Li  Li3  1  0.77309350  0.00000000  0.75000000  1
  Mn  Mn4  1  0.50000000  0.23826050  0.00000000  1
  Mn  Mn5  1  0.50000000  0.76173950  0.50000000  1
  Mn  Mn6  1  0.23826050  0.50000000  0.25000000  1
  Mn  Mn7  1  0.76173950  0.50000000  0.75000000  1
  Nb  Nb8  1  0.25145300  0.25145300  0.62500000  1
  Nb  Nb9  1  0.25145300  0.74854700  0.87500000  1
  Nb  Nb10  1  0.74854700  0.25145300  0.37500000  1
  Nb  Nb11  1  0.74854700  0.74854700  0.12500000  1
  O  O12  1  0.99568750  0.25039050  0.25155000  1
  O  O13  1  0.99568750  0.74960950  0.24845000  1
  O  O14  1  0.25039050  0.99568750  0.99845000  1
  O  O15  1  0.25039050  0.00431250  0.50155000  1
  O  O16  1  0.74960950  0.99568750  0.00155000  1
  O  O17  1  0.74960950  0.00431250  0.49845000  1
  O  O18  1  0.00431250  0.25039050  0.74845000  1
  O  O19  1  0.00431250  0.74960950  0.75155000  1
  O  O20  1  0.25264150  0.49841150  0.00015000  1
  O  O21  1  0.25264150  0.50158850  0.49985000  1
  O  O22  1  0.49841150  0.25264150  0.24985000  1
  O  O23  1  0.49841150  0.74735850  0.25015000  1
  O  O24  1  0.50158850  0.25264150  0.75015000  1
  O  O25  1  0.50158850  0.74735850  0.74985000  1
  O  O26  1  0.74735850  0.50158850  0.50015000  1
  O  O27  1  0.74735850  0.49841150  0.99985000  1
