# generated using pymatgen
data_Li2MnO2F
_symmetry_space_group_name_H-M   'P 1'
_cell_length_a   5.32557691
_cell_length_b   8.74759200
_cell_length_c   9.82398021
_cell_angle_alpha   90.00000000
_cell_angle_beta   96.83302812
_cell_angle_gamma   90.00000000
_symmetry_Int_Tables_number   1
_chemical_formula_structural   Li2MnO2F
_chemical_formula_sum   'Li16 Mn8 O16 F8'
_cell_volume   454.40896991
_cell_formula_units_Z   8
loop_
 _symmetry_equiv_pos_site_id
 _symmetry_equiv_pos_as_xyz
  1  'x, y, z'
loop_
 _atom_site_type_symbol
 _atom_site_label
 _atom_site_symmetry_multiplicity
 _atom_site_fract_x
 _atom_site_fract_y
 _atom_site_fract_z
 _atom_site_occupancy
  Li  Li0  1  0.50000000  0.90727550  0.75000000  1
  Li  Li1  1  0.50000000  0.09272450  0.25000000  1
  Li  Li2  1  0.50000000  0.59030200  0.75000000  1
  Li  Li3  1  0.50000000  0.40969800  0.25000000  1
  Li  Li4  1  0.50000000  0.27444600  0.75000000  1
  Li  Li5  1  0.50000000  0.72555400  0.25000000  1
  Li  Li6  1  0.25000000  0.75000000  0.50000000  1
  Li  Li7  1  0.75000000  0.75000000  0.00000000  1
  Li  Li8  1  0.00000000  0.40727550  0.75000000  1
  Li  Li9  1  0.00000000  0.59272450  0.25000000  1
  Li  Li10  1  0.00000000  0.09030200  0.75000000  1
  Li  Li11  1  0.00000000  0.90969800  0.25000000  1
  Li  Li12  1  0.00000000  0.77444600  0.75000000  1
  Li  Li13  1  0.00000000  0.22555400  0.25000000  1
  Li  Li14  1  0.75000000  0.25000000  0.50000000  1
  Li  Li15  1  0.25000000  0.25000000  0.00000000  1
  Mn  Mn16  1  0.77521050  0.91062050  0.50038250  1
  Mn  Mn17  1  0.22478950  0.91062050  0.99961750  1
  Mn  Mn18  1  0.77521050  0.08937950  0.00038250  1
  Mn  Mn19  1  0.22478950  0.08937950  0.49961750  1
  Mn  Mn20  1  0.27521050  0.41062050  0.50038250  1
  Mn  Mn21  1  0.72478950  0.41062050  0.99961750  1
  Mn  Mn22  1  0.27521050  0.58937950  0.00038250  1
  Mn  Mn23  1  0.72478950  0.58937950  0.49961750  1
  O  O24  1  0.86999000  0.93319800  0.88340750  1
  O  O25  1  0.86999000  0.06680200  0.38340750  1
  O  O26  1  0.13001000  0.93319800  0.61659250  1
  O  O27  1  0.13001000  0.06680200  0.11659250  1
  O  O28  1  0.65209100  0.75907200  0.61915550  1
  O  O29  1  0.65209100  0.24092800  0.11915550  1
  O  O30  1  0.34790900  0.75907200  0.88084450  1
  O  O31  1  0.34790900  0.24092800  0.38084450  1
  O  O32  1  0.36999000  0.43319800  0.88340750  1
  O  O33  1  0.36999000  0.56680200  0.38340750  1
  O  O34  1  0.63001000  0.43319800  0.61659250  1
  O  O35  1  0.63001000  0.56680200  0.11659250  1
  O  O36  1  0.15209100  0.25907200  0.61915550  1
  O  O37  1  0.15209100  0.74092800  0.11915550  1
  O  O38  1  0.84790900  0.25907200  0.88084450  1
  O  O39  1  0.84790900  0.74092800  0.38084450  1
  F  F40  1  0.63245100  0.08201000  0.62282550  1
  F  F41  1  0.63245100  0.91799000  0.12282550  1
  F  F42  1  0.36754900  0.08201000  0.87717450  1
  F  F43  1  0.36754900  0.91799000  0.37717450  1
  F  F44  1  0.13245100  0.58201000  0.62282550  1
  F  F45  1  0.13245100  0.41799000  0.12282550  1
  F  F46  1  0.86754900  0.58201000  0.87717450  1
  F  F47  1  0.86754900  0.41799000  0.37717450  1
