# generated using pymatgen
data_Co2OF3
_symmetry_space_group_name_H-M   'P 1'
_cell_length_a   6.16452600
_cell_length_b   12.82400200
_cell_length_c   6.81863400
_cell_angle_alpha   90.00000000
_cell_angle_beta   90.00000000
_cell_angle_gamma   90.00000000
_symmetry_Int_Tables_number   1
_chemical_formula_structural   Co2OF3
_chemical_formula_sum   'Co16 O8 F24'
_cell_volume   539.03956778
_cell_formula_units_Z   8
loop_
 _symmetry_equiv_pos_site_id
 _symmetry_equiv_pos_as_xyz
  1  'x, y, z'
loop_
 _atom_site_type_symbol
 _atom_site_label
 _atom_site_symmetry_multiplicity
 _atom_site_fract_x
 _atom_site_fract_y
 _atom_site_fract_z
 _atom_site_occupancy
  Co  Co0  1  0.24991150  0.62494650  0.75000000  1
  Co  Co1  1  0.75008850  0.62494650  0.75000000  1
  Co  Co2  1  0.00000000  0.87431900  0.75000000  1
  Co  Co3  1  0.00000000  0.62432900  0.25000000  1
  Co  Co4  1  0.50000000  0.62568100  0.25000000  1
  Co  Co5  1  0.50000000  0.87567100  0.75000000  1
  Co  Co6  1  0.74991150  0.87505350  0.25000000  1
  Co  Co7  1  0.25008850  0.87505350  0.25000000  1
  Co  Co8  1  0.74991150  0.12494650  0.75000000  1
  Co  Co9  1  0.25008850  0.12494650  0.75000000  1
  Co  Co10  1  0.50000000  0.37431900  0.75000000  1
  Co  Co11  1  0.50000000  0.12432900  0.25000000  1
  Co  Co12  1  0.00000000  0.12568100  0.25000000  1
  Co  Co13  1  0.00000000  0.37567100  0.75000000  1
  Co  Co14  1  0.24991150  0.37505350  0.25000000  1
  Co  Co15  1  0.75008850  0.37505350  0.25000000  1
  O  O16  1  0.00000000  0.53028800  0.75000000  1
  O  O17  1  0.50000000  0.71998700  0.75000000  1
  O  O18  1  0.50000000  0.96971200  0.25000000  1
  O  O19  1  0.00000000  0.78001300  0.25000000  1
  O  O20  1  0.50000000  0.03028800  0.75000000  1
  O  O21  1  0.00000000  0.21998700  0.75000000  1
  O  O22  1  0.00000000  0.46971200  0.25000000  1
  O  O23  1  0.50000000  0.28001300  0.25000000  1
  F  F24  1  0.50000000  0.52615200  0.75000000  1
  F  F25  1  0.24995450  0.62486850  0.05125200  1
  F  F26  1  0.75004550  0.62486850  0.05125200  1
  F  F27  1  0.74995450  0.87513150  0.94874800  1
  F  F28  1  0.25004550  0.87513150  0.94874800  1
  F  F29  1  0.24995450  0.62486850  0.44874800  1
  F  F30  1  0.75004550  0.62486850  0.44874800  1
  F  F31  1  0.00000000  0.97384800  0.25000000  1
  F  F32  1  0.00000000  0.72321500  0.75000000  1
  F  F33  1  0.50000000  0.77678500  0.25000000  1
  F  F34  1  0.74995450  0.87513150  0.55125200  1
  F  F35  1  0.25004550  0.87513150  0.55125200  1
  F  F36  1  0.00000000  0.02615200  0.75000000  1
  F  F37  1  0.74995450  0.12486850  0.05125200  1
  F  F38  1  0.25004550  0.12486850  0.05125200  1
  F  F39  1  0.24995450  0.37513150  0.94874800  1
  F  F40  1  0.75004550  0.37513150  0.94874800  1
  F  F41  1  0.74995450  0.12486850  0.44874800  1
  F  F42  1  0.25004550  0.12486850  0.44874800  1
  F  F43  1  0.50000000  0.47384800  0.25000000  1
  F  F44  1  0.50000000  0.22321500  0.75000000  1
  F  F45  1  0.00000000  0.27678500  0.25000000  1
  F  F46  1  0.24995450  0.37513150  0.55125200  1
  F  F47  1  0.75004550  0.37513150  0.55125200  1
