# generated using pymatgen
data_Li4Co3Ni3(SnO8)2
_symmetry_space_group_name_H-M   'P 1'
_cell_length_a   10.26852272
_cell_length_b   5.76676791
_cell_length_c   9.56641304
_cell_angle_alpha   90.00000000
_cell_angle_beta   92.46412470
_cell_angle_gamma   90.00000000
_symmetry_Int_Tables_number   1
_chemical_formula_structural   Li4Co3Ni3(SnO8)2
_chemical_formula_sum   'Li8 Co6 Ni6 Sn4 O32'
_cell_volume   565.96269764
_cell_formula_units_Z   2
loop_
 _symmetry_equiv_pos_site_id
 _symmetry_equiv_pos_as_xyz
  1  'x, y, z'
loop_
 _atom_site_type_symbol
 _atom_site_label
 _atom_site_symmetry_multiplicity
 _atom_site_fract_x
 _atom_site_fract_y
 _atom_site_fract_z
 _atom_site_occupancy
  Li  Li0  1  0.65958000  0.00000000  0.89381100  1
  Li  Li1  1  0.50317850  0.50000000  0.99393400  1
  Li  Li2  1  0.50221050  0.50000000  0.49459100  1
  Li  Li3  1  0.83207000  0.50000000  0.39179600  1
  Li  Li4  1  0.15958000  0.50000000  0.89381100  1
  Li  Li5  1  0.00317850  0.00000000  0.99393400  1
  Li  Li6  1  0.00221050  0.00000000  0.49459100  1
  Li  Li7  1  0.33207000  0.00000000  0.39179600  1
  Co  Co8  1  0.58666950  0.75386950  0.21577400  1
  Co  Co9  1  0.58666950  0.24613050  0.21577400  1
  Co  Co10  1  0.66895150  0.50000000  0.71515800  1
  Co  Co11  1  0.08666950  0.25386950  0.21577400  1
  Co  Co12  1  0.08666950  0.74613050  0.21577400  1
  Co  Co13  1  0.16895150  0.00000000  0.71515800  1
  Ni  Ni14  1  0.83168050  0.00000000  0.21418800  1
  Ni  Ni15  1  0.91475200  0.25225200  0.71480800  1
  Ni  Ni16  1  0.91475200  0.74774800  0.71480800  1
  Ni  Ni17  1  0.33168050  0.50000000  0.21418800  1
  Ni  Ni18  1  0.41475200  0.75225200  0.71480800  1
  Ni  Ni19  1  0.41475200  0.24774800  0.71480800  1
  Sn  Sn20  1  0.66997900  0.00000000  0.49228400  1
  Sn  Sn21  1  0.83322750  0.50000000  0.99311900  1
  Sn  Sn22  1  0.16997900  0.50000000  0.49228400  1
  Sn  Sn23  1  0.33322750  0.00000000  0.99311900  1
  O  O24  1  0.58788200  0.73501200  0.60182500  1
  O  O25  1  0.51623650  0.00000000  0.32993100  1
  O  O26  1  0.64929550  0.00000000  0.11330400  1
  O  O27  1  0.51564250  0.50000000  0.30633000  1
  O  O28  1  0.50699150  0.50000000  0.80428200  1
  O  O29  1  0.58788200  0.26498800  0.60182500  1
  O  O30  1  0.73436300  0.76793900  0.33529100  1
  O  O31  1  0.73436300  0.23206100  0.33529100  1
  O  O32  1  0.65999100  0.50000000  0.10660000  1
  O  O33  1  0.84842250  0.00000000  0.59858900  1
  O  O34  1  0.74792600  0.27759500  0.83851800  1
  O  O35  1  0.74792600  0.72240500  0.83851800  1
  O  O36  1  0.82599150  0.50000000  0.61628300  1
  O  O37  1  0.92692800  0.23780200  0.09948000  1
  O  O38  1  0.97893900  0.50000000  0.83250800  1
  O  O39  1  0.92692800  0.76219800  0.09948000  1
  O  O40  1  0.08788200  0.23501200  0.60182500  1
  O  O41  1  0.01623650  0.50000000  0.32993100  1
  O  O42  1  0.14929550  0.50000000  0.11330400  1
  O  O43  1  0.01564250  0.00000000  0.30633000  1
  O  O44  1  0.00699150  0.00000000  0.80428200  1
  O  O45  1  0.08788200  0.76498800  0.60182500  1
  O  O46  1  0.23436300  0.26793900  0.33529100  1
  O  O47  1  0.23436300  0.73206100  0.33529100  1
  O  O48  1  0.15999100  0.00000000  0.10660000  1
  O  O49  1  0.34842250  0.50000000  0.59858900  1
  O  O50  1  0.24792600  0.77759500  0.83851800  1
  O  O51  1  0.24792600  0.22240500  0.83851800  1
  O  O52  1  0.32599150  0.00000000  0.61628300  1
  O  O53  1  0.42692800  0.73780200  0.09948000  1
  O  O54  1  0.47893900  0.00000000  0.83250800  1
  O  O55  1  0.42692800  0.26219800  0.09948000  1
