# generated using pymatgen
data_VOF
_symmetry_space_group_name_H-M   'P 1'
_cell_length_a   6.67401200
_cell_length_b   6.69393200
_cell_length_c   12.51029897
_cell_angle_alpha   90.00000000
_cell_angle_beta   90.05597541
_cell_angle_gamma   90.00000000
_symmetry_Int_Tables_number   1
_chemical_formula_structural   VOF
_chemical_formula_sum   'V16 O16 F16'
_cell_volume   558.90212490
_cell_formula_units_Z   16
loop_
 _symmetry_equiv_pos_site_id
 _symmetry_equiv_pos_as_xyz
  1  'x, y, z'
loop_
 _atom_site_type_symbol
 _atom_site_label
 _atom_site_symmetry_multiplicity
 _atom_site_fract_x
 _atom_site_fract_y
 _atom_site_fract_z
 _atom_site_occupancy
  V  V0  1  0.02934750  0.99776350  0.62492800  1
  V  V1  1  0.97065250  0.99776350  0.37507200  1
  V  V2  1  0.03003550  0.98286750  0.12506000  1
  V  V3  1  0.96996450  0.98286750  0.87494000  1
  V  V4  1  0.50000000  0.96878700  0.50000000  1
  V  V5  1  0.50000000  0.01868800  0.00000000  1
  V  V6  1  0.50042900  0.02381100  0.74938400  1
  V  V7  1  0.49957100  0.02381100  0.25061600  1
  V  V8  1  0.52934750  0.49776350  0.62492800  1
  V  V9  1  0.47065250  0.49776350  0.37507200  1
  V  V10  1  0.53003550  0.48286750  0.12506000  1
  V  V11  1  0.46996450  0.48286750  0.87494000  1
  V  V12  1  0.00000000  0.46878700  0.50000000  1
  V  V13  1  0.00000000  0.51868800  0.00000000  1
  V  V14  1  0.00042900  0.52381100  0.74938400  1
  V  V15  1  0.99957100  0.52381100  0.25061600  1
  O  O16  1  0.50006400  0.31128000  0.74825200  1
  O  O17  1  0.49993600  0.31128000  0.25174800  1
  O  O18  1  0.50000000  0.30347900  0.00000000  1
  O  O19  1  0.68159600  0.99679100  0.37542600  1
  O  O20  1  0.68372450  0.99930150  0.87459400  1
  O  O21  1  0.31840400  0.99679100  0.62457400  1
  O  O22  1  0.31627550  0.99930150  0.12540600  1
  O  O23  1  0.50000000  0.67980500  0.50000000  1
  O  O24  1  0.00006400  0.81128000  0.74825200  1
  O  O25  1  0.99993600  0.81128000  0.25174800  1
  O  O26  1  0.00000000  0.80347900  0.00000000  1
  O  O27  1  0.18159600  0.49679100  0.37542600  1
  O  O28  1  0.18372450  0.49930150  0.87459400  1
  O  O29  1  0.81840400  0.49679100  0.62457400  1
  O  O30  1  0.81627550  0.49930150  0.12540600  1
  O  O31  1  0.00000000  0.17980500  0.50000000  1
  F  F32  1  0.50000000  0.28991100  0.50000000  1
  F  F33  1  0.70919550  0.99733150  0.62490600  1
  F  F34  1  0.71063150  0.00823650  0.12516700  1
  F  F35  1  0.29080450  0.99733150  0.37509400  1
  F  F36  1  0.28936850  0.00823650  0.87483300  1
  F  F37  1  0.49877400  0.70350800  0.24912500  1
  F  F38  1  0.50000000  0.69737200  0.00000000  1
  F  F39  1  0.50122600  0.70350800  0.75087500  1
  F  F40  1  0.00000000  0.78991100  0.50000000  1
  F  F41  1  0.20919550  0.49733150  0.62490600  1
  F  F42  1  0.21063150  0.50823650  0.12516700  1
  F  F43  1  0.79080450  0.49733150  0.37509400  1
  F  F44  1  0.78936850  0.50823650  0.87483300  1
  F  F45  1  0.99877400  0.20350800  0.24912500  1
  F  F46  1  0.00000000  0.19737200  0.00000000  1
  F  F47  1  0.00122600  0.20350800  0.75087500  1
