# generated using pymatgen
data_Li4Mn(PO3)6
_symmetry_space_group_name_H-M   'P 1'
_cell_length_a   12.48312600
_cell_length_b   7.86145200
_cell_length_c   14.03197012
_cell_angle_alpha   90.00000000
_cell_angle_beta   94.13912042
_cell_angle_gamma   90.00000000
_symmetry_Int_Tables_number   1
_chemical_formula_structural   Li4Mn(PO3)6
_chemical_formula_sum   'Li16 Mn4 P24 O72'
_cell_volume   1373.44267281
_cell_formula_units_Z   4
loop_
 _symmetry_equiv_pos_site_id
 _symmetry_equiv_pos_as_xyz
  1  'x, y, z'
loop_
 _atom_site_type_symbol
 _atom_site_label
 _atom_site_symmetry_multiplicity
 _atom_site_fract_x
 _atom_site_fract_y
 _atom_site_fract_z
 _atom_site_occupancy
  Li  Li0  1  0.16968800  0.86999400  0.92433600  1
  Li  Li1  1  0.16968800  0.13000600  0.42433600  1
  Li  Li2  1  0.32921050  0.88757350  0.54725100  1
  Li  Li3  1  0.32921050  0.11242650  0.04725100  1
  Li  Li4  1  0.67078950  0.88757350  0.95274900  1
  Li  Li5  1  0.67078950  0.11242650  0.45274900  1
  Li  Li6  1  0.83031200  0.86999400  0.57566400  1
  Li  Li7  1  0.83031200  0.13000600  0.07566400  1
  Li  Li8  1  0.66968800  0.36999400  0.92433600  1
  Li  Li9  1  0.66968800  0.63000600  0.42433600  1
  Li  Li10  1  0.82921050  0.38757350  0.54725100  1
  Li  Li11  1  0.82921050  0.61242650  0.04725100  1
  Li  Li12  1  0.17078950  0.38757350  0.95274900  1
  Li  Li13  1  0.17078950  0.61242650  0.45274900  1
  Li  Li14  1  0.33031200  0.36999400  0.57566400  1
  Li  Li15  1  0.33031200  0.63000600  0.07566400  1
  Mn  Mn16  1  0.50000000  0.12549100  0.75000000  1
  Mn  Mn17  1  0.50000000  0.87450900  0.25000000  1
  Mn  Mn18  1  0.00000000  0.62549100  0.75000000  1
  Mn  Mn19  1  0.00000000  0.37450900  0.25000000  1
  P  P20  1  0.09212450  0.94521350  0.61303400  1
  P  P21  1  0.09212450  0.05478650  0.11303400  1
  P  P22  1  0.23054200  0.13881800  0.75082100  1
  P  P23  1  0.23054200  0.86118200  0.25082100  1
  P  P24  1  0.41539850  0.81396850  0.89037500  1
  P  P25  1  0.41539850  0.18603150  0.39037500  1
  P  P26  1  0.58460150  0.81396850  0.60962500  1
  P  P27  1  0.58460150  0.18603150  0.10962500  1
  P  P28  1  0.76945800  0.13881800  0.74917900  1
  P  P29  1  0.76945800  0.86118200  0.24917900  1
  P  P30  1  0.90787550  0.94521350  0.88696600  1
  P  P31  1  0.90787550  0.05478650  0.38696600  1
  P  P32  1  0.59212450  0.44521350  0.61303400  1
  P  P33  1  0.59212450  0.55478650  0.11303400  1
  P  P34  1  0.73054200  0.63881800  0.75082100  1
  P  P35  1  0.73054200  0.36118200  0.25082100  1
  P  P36  1  0.91539850  0.31396850  0.89037500  1
  P  P37  1  0.91539850  0.68603150  0.39037500  1
  P  P38  1  0.08460150  0.31396850  0.60962500  1
  P  P39  1  0.08460150  0.68603150  0.10962500  1
  P  P40  1  0.26945800  0.63881800  0.74917900  1
  P  P41  1  0.26945800  0.36118200  0.24917900  1
  P  P42  1  0.40787550  0.44521350  0.88696600  1
  P  P43  1  0.40787550  0.55478650  0.38696600  1
  O  O44  1  0.15962100  0.97572100  0.71386600  1
  O  O45  1  0.16679100  0.92020600  0.53493400  1
  O  O46  1  0.15962100  0.02427900  0.21386600  1
  O  O47  1  0.16679100  0.07979400  0.03493400  1
  O  O48  1  0.23426250  0.13582950  0.85686500  1
  O  O49  1  0.23426250  0.86417050  0.35686500  1
  O  O50  1  0.34144700  0.84561500  0.96855900  1
  O  O51  1  0.33186350  0.14526150  0.69818900  1
  O  O52  1  0.34660850  0.79406150  0.78852000  1
  O  O53  1  0.34144700  0.15438500  0.46855900  1
  O  O54  1  0.33186350  0.85473850  0.19818900  1
  O  O55  1  0.34660850  0.20593850  0.28852000  1
  O  O56  1  0.46913800  0.62660100  0.90205500  1
  O  O57  1  0.49386200  0.31763200  0.86954100  1
  O  O58  1  0.50579300  0.93467700  0.87405700  1
  O  O59  1  0.46913800  0.37339900  0.40205500  1
  O  O60  1  0.49420700  0.93467700  0.62594300  1
  O  O61  1  0.49386200  0.68236800  0.36954100  1
  O  O62  1  0.50613800  0.31763200  0.63045900  1
  O  O63  1  0.50579300  0.06532300  0.37405700  1
  O  O64  1  0.53086200  0.62660100  0.59794500  1
  O  O65  1  0.49420700  0.06532300  0.12594300  1
  O  O66  1  0.50613800  0.68236800  0.13045900  1
  O  O67  1  0.53086200  0.37339900  0.09794500  1
  O  O68  1  0.65339150  0.79406150  0.71148000  1
  O  O69  1  0.66813650  0.14526150  0.80181100  1
  O  O70  1  0.65855300  0.84561500  0.53144100  1
  O  O71  1  0.65339150  0.20593850  0.21148000  1
  O  O72  1  0.66813650  0.85473850  0.30181100  1
  O  O73  1  0.65855300  0.15438500  0.03144100  1
  O  O74  1  0.76573750  0.13582950  0.64313500  1
  O  O75  1  0.76573750  0.86417050  0.14313500  1
  O  O76  1  0.83320900  0.92020600  0.96506600  1
  O  O77  1  0.84037900  0.97572100  0.78613400  1
  O  O78  1  0.83320900  0.07979400  0.46506600  1
  O  O79  1  0.84037900  0.02427900  0.28613400  1
  O  O80  1  0.65962100  0.47572100  0.71386600  1
  O  O81  1  0.66679100  0.42020600  0.53493400  1
  O  O82  1  0.65962100  0.52427900  0.21386600  1
  O  O83  1  0.66679100  0.57979400  0.03493400  1
  O  O84  1  0.73426250  0.63582950  0.85686500  1
  O  O85  1  0.73426250  0.36417050  0.35686500  1
  O  O86  1  0.84144700  0.34561500  0.96855900  1
  O  O87  1  0.83186350  0.64526150  0.69818900  1
  O  O88  1  0.84660850  0.29406150  0.78852000  1
  O  O89  1  0.84144700  0.65438500  0.46855900  1
  O  O90  1  0.83186350  0.35473850  0.19818900  1
  O  O91  1  0.84660850  0.70593850  0.28852000  1
  O  O92  1  0.96913800  0.12660100  0.90205500  1
  O  O93  1  0.99386200  0.81763200  0.86954100  1
  O  O94  1  0.00579300  0.43467700  0.87405700  1
  O  O95  1  0.96913800  0.87339900  0.40205500  1
  O  O96  1  0.99420700  0.43467700  0.62594300  1
  O  O97  1  0.99386200  0.18236800  0.36954100  1
  O  O98  1  0.00613800  0.81763200  0.63045900  1
  O  O99  1  0.00579300  0.56532300  0.37405700  1
  O  O100  1  0.03086200  0.12660100  0.59794500  1
  O  O101  1  0.99420700  0.56532300  0.12594300  1
  O  O102  1  0.00613800  0.18236800  0.13045900  1
  O  O103  1  0.03086200  0.87339900  0.09794500  1
  O  O104  1  0.15339150  0.29406150  0.71148000  1
  O  O105  1  0.16813650  0.64526150  0.80181100  1
  O  O106  1  0.15855300  0.34561500  0.53144100  1
  O  O107  1  0.15339150  0.70593850  0.21148000  1
  O  O108  1  0.16813650  0.35473850  0.30181100  1
  O  O109  1  0.15855300  0.65438500  0.03144100  1
  O  O110  1  0.26573750  0.63582950  0.64313500  1
  O  O111  1  0.26573750  0.36417050  0.14313500  1
  O  O112  1  0.33320900  0.42020600  0.96506600  1
  O  O113  1  0.34037900  0.47572100  0.78613400  1
  O  O114  1  0.33320900  0.57979400  0.46506600  1
  O  O115  1  0.34037900  0.52427900  0.28613400  1
