# generated using pymatgen
data_Na(Cu2Sb)2
_symmetry_space_group_name_H-M   'P 1'
_cell_length_a   4.28297009
_cell_length_b   4.28297009
_cell_length_c   25.27103975
_cell_angle_alpha   90.00000000
_cell_angle_beta   90.00000000
_cell_angle_gamma   120.00000000
_symmetry_Int_Tables_number   1
_chemical_formula_structural   Na(Cu2Sb)2
_chemical_formula_sum   'Na3 Cu12 Sb6'
_cell_volume   401.46142805
_cell_formula_units_Z   3
loop_
 _symmetry_equiv_pos_site_id
 _symmetry_equiv_pos_as_xyz
  1  'x, y, z'
loop_
 _atom_site_type_symbol
 _atom_site_label
 _atom_site_symmetry_multiplicity
 _atom_site_fract_x
 _atom_site_fract_y
 _atom_site_fract_z
 _atom_site_occupancy
  Na  Na0  1  0.00000000  0.00000000  0.00000000  1
  Na  Na1  1  0.66666667  0.33333333  0.33333333  1
  Na  Na2  1  0.33333333  0.66666667  0.66666667  1
  Cu  Cu3  1  0.66666667  0.33333333  0.19082433  1
  Cu  Cu4  1  0.00000000  0.00000000  0.14250900  1
  Cu  Cu5  1  0.33333333  0.66666667  0.21723367  1
  Cu  Cu6  1  0.33333333  0.66666667  0.11609967  1
  Cu  Cu7  1  0.33333333  0.66666667  0.52415767  1
  Cu  Cu8  1  0.66666667  0.33333333  0.47584233  1
  Cu  Cu9  1  0.00000000  0.00000000  0.55056700  1
  Cu  Cu10  1  0.00000000  0.00000000  0.44943300  1
  Cu  Cu11  1  0.00000000  0.00000000  0.85749100  1
  Cu  Cu12  1  0.33333333  0.66666667  0.80917567  1
  Cu  Cu13  1  0.66666667  0.33333333  0.88390033  1
  Cu  Cu14  1  0.66666667  0.33333333  0.78276633  1
  Sb  Sb15  1  0.66666667  0.33333333  0.08396333  1
  Sb  Sb16  1  0.00000000  0.00000000  0.24937000  1
  Sb  Sb17  1  0.33333333  0.66666667  0.41729667  1
  Sb  Sb18  1  0.66666667  0.33333333  0.58270333  1
  Sb  Sb19  1  0.00000000  0.00000000  0.75063000  1
  Sb  Sb20  1  0.33333333  0.66666667  0.91603667  1
