# generated using pymatgen
data_Lu4Ni13C4
_symmetry_space_group_name_H-M   'P 1'
_cell_length_a   11.57951000
_cell_length_b   11.85073800
_cell_length_c   3.80545400
_cell_angle_alpha   90.00000000
_cell_angle_beta   90.00000000
_cell_angle_gamma   90.00000000
_symmetry_Int_Tables_number   1
_chemical_formula_structural   Lu4Ni13C4
_chemical_formula_sum   'Lu8 Ni26 C8'
_cell_volume   522.20623806
_cell_formula_units_Z   2
loop_
 _symmetry_equiv_pos_site_id
 _symmetry_equiv_pos_as_xyz
  1  'x, y, z'
loop_
 _atom_site_type_symbol
 _atom_site_label
 _atom_site_symmetry_multiplicity
 _atom_site_fract_x
 _atom_site_fract_y
 _atom_site_fract_z
 _atom_site_occupancy
  Lu  Lu0  1  0.50000000  0.18607700  0.00000000  1
  Lu  Lu1  1  0.50000000  0.81392300  0.00000000  1
  Lu  Lu2  1  0.84839500  0.00000000  0.00000000  1
  Lu  Lu3  1  0.15160500  0.00000000  0.00000000  1
  Lu  Lu4  1  0.00000000  0.68607700  0.00000000  1
  Lu  Lu5  1  0.00000000  0.31392300  0.00000000  1
  Lu  Lu6  1  0.34839500  0.50000000  0.00000000  1
  Lu  Lu7  1  0.65160500  0.50000000  0.00000000  1
  Ni  Ni8  1  0.50000000  0.00000000  0.50000000  1
  Ni  Ni9  1  0.39310100  0.67729100  0.50000000  1
  Ni  Ni10  1  0.60689900  0.32270900  0.50000000  1
  Ni  Ni11  1  0.60689900  0.67729100  0.50000000  1
  Ni  Ni12  1  0.39310100  0.32270900  0.50000000  1
  Ni  Ni13  1  0.25000000  0.75000000  0.00000000  1
  Ni  Ni14  1  0.25000000  0.25000000  0.00000000  1
  Ni  Ni15  1  0.68315900  0.10823200  0.50000000  1
  Ni  Ni16  1  0.31684100  0.89176800  0.50000000  1
  Ni  Ni17  1  0.31684100  0.10823200  0.50000000  1
  Ni  Ni18  1  0.68315900  0.89176800  0.50000000  1
  Ni  Ni19  1  0.62406600  0.00000000  0.00000000  1
  Ni  Ni20  1  0.37593400  0.00000000  0.00000000  1
  Ni  Ni21  1  0.00000000  0.50000000  0.50000000  1
  Ni  Ni22  1  0.89310100  0.17729100  0.50000000  1
  Ni  Ni23  1  0.10689900  0.82270900  0.50000000  1
  Ni  Ni24  1  0.10689900  0.17729100  0.50000000  1
  Ni  Ni25  1  0.89310100  0.82270900  0.50000000  1
  Ni  Ni26  1  0.75000000  0.25000000  0.00000000  1
  Ni  Ni27  1  0.75000000  0.75000000  0.00000000  1
  Ni  Ni28  1  0.18315900  0.60823200  0.50000000  1
  Ni  Ni29  1  0.81684100  0.39176800  0.50000000  1
  Ni  Ni30  1  0.81684100  0.60823200  0.50000000  1
  Ni  Ni31  1  0.18315900  0.39176800  0.50000000  1
  Ni  Ni32  1  0.12406600  0.50000000  0.00000000  1
  Ni  Ni33  1  0.87593400  0.50000000  0.00000000  1
  C  C34  1  0.25000000  0.75000000  0.50000000  1
  C  C35  1  0.25000000  0.25000000  0.50000000  1
  C  C36  1  0.50000000  0.55710500  0.50000000  1
  C  C37  1  0.50000000  0.44289500  0.50000000  1
  C  C38  1  0.75000000  0.25000000  0.50000000  1
  C  C39  1  0.75000000  0.75000000  0.50000000  1
  C  C40  1  0.00000000  0.05710500  0.50000000  1
  C  C41  1  0.00000000  0.94289500  0.50000000  1
