# generated using pymatgen
data_Mn3(OF2)2
_symmetry_space_group_name_H-M   'P 1'
_cell_length_a   4.89597950
_cell_length_b   4.89597950
_cell_length_c   9.35924200
_cell_angle_alpha   90.00000000
_cell_angle_beta   90.00000000
_cell_angle_gamma   90.00000000
_symmetry_Int_Tables_number   1
_chemical_formula_structural   Mn3(OF2)2
_chemical_formula_sum   'Mn6 O4 F8'
_cell_volume   224.34678918
_cell_formula_units_Z   2
loop_
 _symmetry_equiv_pos_site_id
 _symmetry_equiv_pos_as_xyz
  1  'x, y, z'
loop_
 _atom_site_type_symbol
 _atom_site_label
 _atom_site_symmetry_multiplicity
 _atom_site_fract_x
 _atom_site_fract_y
 _atom_site_fract_z
 _atom_site_occupancy
  Mn  Mn0  1  0.00000000  0.00000000  0.00000000  1
  Mn  Mn1  1  0.50000000  0.50000000  0.15063800  1
  Mn  Mn2  1  0.00000000  0.00000000  0.34936200  1
  Mn  Mn3  1  0.50000000  0.50000000  0.50000000  1
  Mn  Mn4  1  0.50000000  0.50000000  0.84936200  1
  Mn  Mn5  1  0.00000000  0.00000000  0.65063800  1
  O  O6  1  0.68303300  0.31696700  0.00000000  1
  O  O7  1  0.81696700  0.81696700  0.50000000  1
  O  O8  1  0.18303300  0.18303300  0.50000000  1
  O  O9  1  0.31696700  0.68303300  0.00000000  1
  F  F10  1  0.68676750  0.31323250  0.31487600  1
  F  F11  1  0.68676750  0.31323250  0.68512400  1
  F  F12  1  0.81323250  0.81323250  0.81487600  1
  F  F13  1  0.81323250  0.81323250  0.18512400  1
  F  F14  1  0.18676750  0.18676750  0.81487600  1
  F  F15  1  0.18676750  0.18676750  0.18512400  1
  F  F16  1  0.31323250  0.68676750  0.31487600  1
  F  F17  1  0.31323250  0.68676750  0.68512400  1
