# generated using pymatgen
data_Th2Fe17
_symmetry_space_group_name_H-M   'P 1'
_cell_length_a   8.51550149
_cell_length_b   8.51550149
_cell_length_c   12.55390952
_cell_angle_alpha   90.00000000
_cell_angle_beta   90.00000000
_cell_angle_gamma   120.00000000
_symmetry_Int_Tables_number   1
_chemical_formula_structural   Th2Fe17
_chemical_formula_sum   'Th6 Fe51'
_cell_volume   788.36999108
_cell_formula_units_Z   3
loop_
 _symmetry_equiv_pos_site_id
 _symmetry_equiv_pos_as_xyz
  1  'x, y, z'
loop_
 _atom_site_type_symbol
 _atom_site_label
 _atom_site_symmetry_multiplicity
 _atom_site_fract_x
 _atom_site_fract_y
 _atom_site_fract_z
 _atom_site_occupancy
  Th  Th0  1  0.33333333  0.66666667  0.32532967  1
  Th  Th1  1  0.33333333  0.66666667  0.00800367  1
  Th  Th2  1  0.00000000  0.00000000  0.65866300  1
  Th  Th3  1  0.00000000  0.00000000  0.34133700  1
  Th  Th4  1  0.66666667  0.33333333  0.99199633  1
  Th  Th5  1  0.66666667  0.33333333  0.67467033  1
  Fe  Fe6  1  0.16666667  0.83333333  0.83333333  1
  Fe  Fe7  1  0.83333333  0.66666667  0.16666667  1
  Fe  Fe8  1  0.33333333  0.16666667  0.16666667  1
  Fe  Fe9  1  0.95678267  0.62344933  0.33333333  1
  Fe  Fe10  1  0.70988400  0.00000000  0.00000000  1
  Fe  Fe11  1  1.00000000  0.70988400  0.00000000  1
  Fe  Fe12  1  0.29011600  0.00000000  0.00000000  1
  Fe  Fe13  1  1.00000000  0.29011600  0.00000000  1
  Fe  Fe14  1  0.37655067  0.04321733  0.33333333  1
  Fe  Fe15  1  0.16601833  0.83398167  0.17569267  1
  Fe  Fe16  1  0.16601833  0.33203667  0.17569267  1
  Fe  Fe17  1  0.66796333  0.83398167  0.17569267  1
  Fe  Fe18  1  0.50064833  0.49935167  0.15764067  1
  Fe  Fe19  1  0.50064833  0.00129667  0.15764067  1
  Fe  Fe20  1  0.99870333  0.49935167  0.15764067  1
  Fe  Fe21  1  0.33333333  0.66666667  0.57110867  1
  Fe  Fe22  1  0.33333333  0.66666667  0.76222467  1
  Fe  Fe23  1  0.83333333  0.16666667  0.16666667  1
  Fe  Fe24  1  0.50000000  0.00000000  0.50000000  1
  Fe  Fe25  1  0.00000000  0.50000000  0.50000000  1
  Fe  Fe26  1  0.62344933  0.95678267  0.66666667  1
  Fe  Fe27  1  0.37655067  0.33333333  0.33333333  1
  Fe  Fe28  1  0.66666667  0.04321733  0.33333333  1
  Fe  Fe29  1  0.95678267  0.33333333  0.33333333  1
  Fe  Fe30  1  0.66666667  0.62344933  0.33333333  1
  Fe  Fe31  1  0.04321733  0.37655067  0.66666667  1
  Fe  Fe32  1  0.83268500  0.16731500  0.50902600  1
  Fe  Fe33  1  0.83268500  0.66537000  0.50902600  1
  Fe  Fe34  1  0.33463000  0.16731500  0.50902600  1
  Fe  Fe35  1  0.16731500  0.83268500  0.49097400  1
  Fe  Fe36  1  0.16731500  0.33463000  0.49097400  1
  Fe  Fe37  1  0.66537000  0.83268500  0.49097400  1
  Fe  Fe38  1  0.00000000  0.00000000  0.90444200  1
  Fe  Fe39  1  0.00000000  0.00000000  0.09555800  1
  Fe  Fe40  1  0.50000000  0.50000000  0.50000000  1
  Fe  Fe41  1  0.16666667  0.33333333  0.83333333  1
  Fe  Fe42  1  0.66666667  0.83333333  0.83333333  1
  Fe  Fe43  1  0.29011600  0.29011600  0.00000000  1
  Fe  Fe44  1  0.04321733  0.66666667  0.66666667  1
  Fe  Fe45  1  0.33333333  0.37655067  0.66666667  1
  Fe  Fe46  1  0.62344933  0.66666667  0.66666667  1
  Fe  Fe47  1  0.33333333  0.95678267  0.66666667  1
  Fe  Fe48  1  0.70988400  0.70988400  0.00000000  1
  Fe  Fe49  1  0.49935167  0.50064833  0.84235933  1
  Fe  Fe50  1  0.49935167  0.99870333  0.84235933  1
  Fe  Fe51  1  0.00129667  0.50064833  0.84235933  1
  Fe  Fe52  1  0.83398167  0.16601833  0.82430733  1
  Fe  Fe53  1  0.83398167  0.66796333  0.82430733  1
  Fe  Fe54  1  0.33203667  0.16601833  0.82430733  1
  Fe  Fe55  1  0.66666667  0.33333333  0.23777533  1
  Fe  Fe56  1  0.66666667  0.33333333  0.42889133  1
