# generated using pymatgen
data_HoCoSi2
_symmetry_space_group_name_H-M   'P 1'
_cell_length_a   3.99581800
_cell_length_b   16.14100200
_cell_length_c   3.95588600
_cell_angle_alpha   90.00000000
_cell_angle_beta   90.00000000
_cell_angle_gamma   90.00000000
_symmetry_Int_Tables_number   1
_chemical_formula_structural   HoCoSi2
_chemical_formula_sum   'Ho4 Co4 Si8'
_cell_volume   255.14082644
_cell_formula_units_Z   4
loop_
 _symmetry_equiv_pos_site_id
 _symmetry_equiv_pos_as_xyz
  1  'x, y, z'
loop_
 _atom_site_type_symbol
 _atom_site_label
 _atom_site_symmetry_multiplicity
 _atom_site_fract_x
 _atom_site_fract_y
 _atom_site_fract_z
 _atom_site_occupancy
  Ho  Ho0  1  0.50000000  0.39251300  0.75000000  1
  Ho  Ho1  1  0.00000000  0.10748700  0.25000000  1
  Ho  Ho2  1  0.00000000  0.89251300  0.75000000  1
  Ho  Ho3  1  0.50000000  0.60748700  0.25000000  1
  Co  Co4  1  0.50000000  0.17895700  0.75000000  1
  Co  Co5  1  0.00000000  0.32104300  0.25000000  1
  Co  Co6  1  0.00000000  0.67895700  0.75000000  1
  Co  Co7  1  0.50000000  0.82104300  0.25000000  1
  Si  Si8  1  0.50000000  0.25012200  0.25000000  1
  Si  Si9  1  0.00000000  0.24987800  0.75000000  1
  Si  Si10  1  0.00000000  0.45763700  0.25000000  1
  Si  Si11  1  0.50000000  0.04236300  0.75000000  1
  Si  Si12  1  0.00000000  0.75012200  0.25000000  1
  Si  Si13  1  0.50000000  0.74987800  0.75000000  1
  Si  Si14  1  0.50000000  0.95763700  0.25000000  1
  Si  Si15  1  0.00000000  0.54236300  0.75000000  1
