# generated using pymatgen
data_BaTbF6
_symmetry_space_group_name_H-M   'P 1'
_cell_length_a   7.97912400
_cell_length_b   12.17969800
_cell_length_c   5.50927600
_cell_angle_alpha   90.00000000
_cell_angle_beta   90.00000000
_cell_angle_gamma   90.00000000
_symmetry_Int_Tables_number   1
_chemical_formula_structural   BaTbF6
_chemical_formula_sum   'Ba4 Tb4 F24'
_cell_volume   535.40973592
_cell_formula_units_Z   4
loop_
 _symmetry_equiv_pos_site_id
 _symmetry_equiv_pos_as_xyz
  1  'x, y, z'
loop_
 _atom_site_type_symbol
 _atom_site_label
 _atom_site_symmetry_multiplicity
 _atom_site_fract_x
 _atom_site_fract_y
 _atom_site_fract_z
 _atom_site_occupancy
  Ba  Ba0  1  0.50000000  0.75000000  0.41977300  1
  Ba  Ba1  1  0.50000000  0.25000000  0.58022700  1
  Ba  Ba2  1  0.00000000  0.25000000  0.41977300  1
  Ba  Ba3  1  0.00000000  0.75000000  0.58022700  1
  Tb  Tb4  1  0.25000000  0.00000000  0.00000000  1
  Tb  Tb5  1  0.75000000  0.00000000  0.00000000  1
  Tb  Tb6  1  0.75000000  0.50000000  0.00000000  1
  Tb  Tb7  1  0.25000000  0.50000000  0.00000000  1
  F  F8  1  0.30240500  0.14192000  0.25550700  1
  F  F9  1  0.19759500  0.85808000  0.25550700  1
  F  F10  1  0.30240500  0.85808000  0.74449300  1
  F  F11  1  0.19759500  0.14192000  0.74449300  1
  F  F12  1  0.50000000  0.94363900  0.18461700  1
  F  F13  1  0.50000000  0.55636100  0.18461700  1
  F  F14  1  0.50000000  0.05636100  0.81538300  1
  F  F15  1  0.50000000  0.44363900  0.81538300  1
  F  F16  1  0.80240500  0.85808000  0.25550700  1
  F  F17  1  0.69759500  0.14192000  0.25550700  1
  F  F18  1  0.80240500  0.14192000  0.74449300  1
  F  F19  1  0.69759500  0.85808000  0.74449300  1
  F  F20  1  0.80240500  0.64192000  0.25550700  1
  F  F21  1  0.69759500  0.35808000  0.25550700  1
  F  F22  1  0.80240500  0.35808000  0.74449300  1
  F  F23  1  0.69759500  0.64192000  0.74449300  1
  F  F24  1  0.00000000  0.44363900  0.18461700  1
  F  F25  1  0.00000000  0.05636100  0.18461700  1
  F  F26  1  0.00000000  0.55636100  0.81538300  1
  F  F27  1  0.00000000  0.94363900  0.81538300  1
  F  F28  1  0.30240500  0.35808000  0.25550700  1
  F  F29  1  0.19759500  0.64192000  0.25550700  1
  F  F30  1  0.30240500  0.64192000  0.74449300  1
  F  F31  1  0.19759500  0.35808000  0.74449300  1
