# generated using pymatgen
data_Li2MnFe(BO3)2
_symmetry_space_group_name_H-M   'P 1'
_cell_length_a   8.25563200
_cell_length_b   6.32314000
_cell_length_c   8.26418694
_cell_angle_alpha   90.00000000
_cell_angle_beta   119.86735253
_cell_angle_gamma   90.00000000
_symmetry_Int_Tables_number   1
_chemical_formula_structural   Li2MnFe(BO3)2
_chemical_formula_sum   'Li6 Mn3 Fe3 B6 O18'
_cell_volume   374.10441570
_cell_formula_units_Z   3
loop_
 _symmetry_equiv_pos_site_id
 _symmetry_equiv_pos_as_xyz
  1  'x, y, z'
loop_
 _atom_site_type_symbol
 _atom_site_label
 _atom_site_symmetry_multiplicity
 _atom_site_fract_x
 _atom_site_fract_y
 _atom_site_fract_z
 _atom_site_occupancy
  Li  Li0  1  0.28316800  0.25055700  0.30164400  1
  Li  Li1  1  0.28316800  0.74944300  0.30164400  1
  Li  Li2  1  0.01683800  0.25043100  0.71545100  1
  Li  Li3  1  0.01683800  0.74956900  0.71545100  1
  Li  Li4  1  0.69873700  0.75035200  0.98405600  1
  Li  Li5  1  0.69873700  0.24964800  0.98405600  1
  Mn  Mn6  1  0.37184600  0.00000000  0.01183800  1
  Mn  Mn7  1  0.37323300  0.50000000  0.01202400  1
  Mn  Mn8  1  0.64063500  0.00000000  0.62826100  1
  Fe  Fe9  1  0.64079300  0.50000000  0.63376700  1
  Fe  Fe10  1  0.99202500  0.00000000  0.35903300  1
  Fe  Fe11  1  0.99186700  0.50000000  0.35961500  1
  B  B12  1  0.99820700  0.00000000  0.00082100  1
  B  B13  1  0.99824200  0.50000000  0.99830200  1
  B  B14  1  0.33210300  0.25184200  0.66406100  1
  B  B15  1  0.33210300  0.74815800  0.66406100  1
  B  B16  1  0.66938100  0.25149100  0.33549700  1
  B  B17  1  0.66938100  0.74850900  0.33549700  1
  O  O18  1  0.10729100  0.50000000  0.19195900  1
  O  O19  1  0.11121800  0.00000000  0.19482800  1
  O  O20  1  0.13811800  0.25016000  0.55626400  1
  O  O21  1  0.13811800  0.74984000  0.55626400  1
  O  O22  1  0.07908400  0.00000000  0.88779400  1
  O  O23  1  0.08099600  0.50000000  0.88766600  1
  O  O24  1  0.44036400  0.25403900  0.57872100  1
  O  O25  1  0.44036400  0.74596100  0.57872100  1
  O  O26  1  0.41792200  0.24989400  0.85747500  1
  O  O27  1  0.41792200  0.75010600  0.85747500  1
  O  O28  1  0.47506000  0.25045700  0.22275500  1
  O  O29  1  0.47506000  0.74954300  0.22275500  1
  O  O30  1  0.80512900  0.00000000  0.92143200  1
  O  O31  1  0.80358500  0.50000000  0.91496400  1
  O  O32  1  0.78236800  0.25020900  0.25455300  1
  O  O33  1  0.78236800  0.74979100  0.25455300  1
  O  O34  1  0.74886400  0.74694300  0.52836900  1
  O  O35  1  0.74886400  0.25305700  0.52836900  1
