# generated using pymatgen
data_LiVF4
_symmetry_space_group_name_H-M   'P 1'
_cell_length_a   12.81956400
_cell_length_b   3.99738400
_cell_length_c   6.58787636
_cell_angle_alpha   90.00000000
_cell_angle_beta   107.64654467
_cell_angle_gamma   90.00000000
_symmetry_Int_Tables_number   1
_chemical_formula_structural   LiVF4
_chemical_formula_sum   'Li4 V4 F16'
_cell_volume   321.70830541
_cell_formula_units_Z   4
loop_
 _symmetry_equiv_pos_site_id
 _symmetry_equiv_pos_as_xyz
  1  'x, y, z'
loop_
 _atom_site_type_symbol
 _atom_site_label
 _atom_site_symmetry_multiplicity
 _atom_site_fract_x
 _atom_site_fract_y
 _atom_site_fract_z
 _atom_site_occupancy
  Li  Li0  1  0.30189800  0.50000000  0.19805300  1
  Li  Li1  1  0.19810200  0.00000000  0.80194700  1
  Li  Li2  1  0.80189800  0.00000000  0.19805300  1
  Li  Li3  1  0.69810200  0.50000000  0.80194700  1
  V  V4  1  0.38976800  0.50000000  0.79366400  1
  V  V5  1  0.11023200  0.00000000  0.20633600  1
  V  V6  1  0.88976800  0.00000000  0.79366400  1
  V  V7  1  0.61023200  0.50000000  0.20633600  1
  F  F8  1  0.44393900  0.50000000  0.12473900  1
  F  F9  1  0.36083900  0.50000000  0.49830500  1
  F  F10  1  0.25093500  0.00000000  0.15634900  1
  F  F11  1  0.37617500  0.00000000  0.79962800  1
  F  F12  1  0.12382500  0.50000000  0.20037200  1
  F  F13  1  0.24906500  0.50000000  0.84365100  1
  F  F14  1  0.13916100  0.00000000  0.50169500  1
  F  F15  1  0.05606100  0.00000000  0.87526100  1
  F  F16  1  0.94393900  0.00000000  0.12473900  1
  F  F17  1  0.86083900  0.00000000  0.49830500  1
  F  F18  1  0.75093500  0.50000000  0.15634900  1
  F  F19  1  0.87617500  0.50000000  0.79962800  1
  F  F20  1  0.62382500  0.00000000  0.20037200  1
  F  F21  1  0.74906500  0.00000000  0.84365100  1
  F  F22  1  0.63916100  0.50000000  0.50169500  1
  F  F23  1  0.55606100  0.50000000  0.87526100  1
