# generated using pymatgen
data_Li4Mn(SiO3)3
_symmetry_space_group_name_H-M   'P 1'
_cell_length_a   7.51706800
_cell_length_b   10.24515400
_cell_length_c   10.12733858
_cell_angle_alpha   90.00000000
_cell_angle_beta   91.62434898
_cell_angle_gamma   90.00000000
_symmetry_Int_Tables_number   1
_chemical_formula_structural   Li4Mn(SiO3)3
_chemical_formula_sum   'Li16 Mn4 Si12 O36'
_cell_volume   779.62857239
_cell_formula_units_Z   4
loop_
 _symmetry_equiv_pos_site_id
 _symmetry_equiv_pos_as_xyz
  1  'x, y, z'
loop_
 _atom_site_type_symbol
 _atom_site_label
 _atom_site_symmetry_multiplicity
 _atom_site_fract_x
 _atom_site_fract_y
 _atom_site_fract_z
 _atom_site_occupancy
  Li  Li0  1  0.28518050  0.90457550  0.20556200  1
  Li  Li1  1  0.36246500  0.17474100  0.79172800  1
  Li  Li2  1  0.50000000  0.50485300  0.50000000  1
  Li  Li3  1  0.50000000  0.95696100  0.50000000  1
  Li  Li4  1  0.50000000  0.87125000  0.00000000  1
  Li  Li5  1  0.50000000  0.50289600  0.00000000  1
  Li  Li6  1  0.63753500  0.17474100  0.20827200  1
  Li  Li7  1  0.71481950  0.90457550  0.79443800  1
  Li  Li8  1  0.78518050  0.40457550  0.20556200  1
  Li  Li9  1  0.86246500  0.67474100  0.79172800  1
  Li  Li10  1  0.00000000  0.00485300  0.50000000  1
  Li  Li11  1  0.00000000  0.45696100  0.50000000  1
  Li  Li12  1  0.00000000  0.37125000  0.00000000  1
  Li  Li13  1  0.00000000  0.00289600  0.00000000  1
  Li  Li14  1  0.13753500  0.67474100  0.20827200  1
  Li  Li15  1  0.21481950  0.40457550  0.79443800  1
  Mn  Mn16  1  0.50145600  0.67263300  0.25609700  1
  Mn  Mn17  1  0.49854400  0.67263300  0.74390300  1
  Mn  Mn18  1  0.00145600  0.17263300  0.25609700  1
  Mn  Mn19  1  0.99854400  0.17263300  0.74390300  1
  Si  Si20  1  0.22949750  0.88897450  0.74818700  1
  Si  Si21  1  0.29761750  0.22603850  0.49900900  1
  Si  Si22  1  0.31097450  0.17991550  0.05355000  1
  Si  Si23  1  0.68902550  0.17991550  0.94645000  1
  Si  Si24  1  0.70238250  0.22603850  0.50099100  1
  Si  Si25  1  0.77050250  0.88897450  0.25181300  1
  Si  Si26  1  0.72949750  0.38897450  0.74818700  1
  Si  Si27  1  0.79761750  0.72603850  0.49900900  1
  Si  Si28  1  0.81097450  0.67991550  0.05355000  1
  Si  Si29  1  0.18902550  0.67991550  0.94645000  1
  Si  Si30  1  0.20238250  0.72603850  0.50099100  1
  Si  Si31  1  0.27050250  0.38897450  0.25181300  1
  O  O32  1  0.17241450  0.03082450  0.79690200  1
  O  O33  1  0.18125100  0.86832900  0.58555600  1
  O  O34  1  0.18681500  0.06810600  0.11632300  1
  O  O35  1  0.16324650  0.12806250  0.42186300  1
  O  O36  1  0.27782950  0.77214750  0.05946700  1
  O  O37  1  0.25265750  0.76866950  0.35306700  1
  O  O38  1  0.39126700  0.27269600  0.17945200  1
  O  O39  1  0.44145750  0.86994450  0.77622600  1
  O  O40  1  0.50000000  0.15141900  0.50000000  1
  O  O41  1  0.50000000  0.10964500  0.00000000  1
  O  O42  1  0.55854250  0.86994450  0.22377400  1
  O  O43  1  0.60873300  0.27269600  0.82054800  1
  O  O44  1  0.74734250  0.76866950  0.64693300  1
  O  O45  1  0.72217050  0.77214750  0.94053300  1
  O  O46  1  0.83675350  0.12806250  0.57813700  1
  O  O47  1  0.81318500  0.06810600  0.88367700  1
  O  O48  1  0.81874900  0.86832900  0.41444400  1
  O  O49  1  0.82758550  0.03082450  0.20309800  1
  O  O50  1  0.67241450  0.53082450  0.79690200  1
  O  O51  1  0.68125100  0.36832900  0.58555600  1
  O  O52  1  0.68681500  0.56810600  0.11632300  1
  O  O53  1  0.66324650  0.62806250  0.42186300  1
  O  O54  1  0.77782950  0.27214750  0.05946700  1
  O  O55  1  0.75265750  0.26866950  0.35306700  1
  O  O56  1  0.89126700  0.77269600  0.17945200  1
  O  O57  1  0.94145750  0.36994450  0.77622600  1
  O  O58  1  0.00000000  0.65141900  0.50000000  1
  O  O59  1  0.00000000  0.60964500  0.00000000  1
  O  O60  1  0.05854250  0.36994450  0.22377400  1
  O  O61  1  0.10873300  0.77269600  0.82054800  1
  O  O62  1  0.24734250  0.26866950  0.64693300  1
  O  O63  1  0.22217050  0.27214750  0.94053300  1
  O  O64  1  0.33675350  0.62806250  0.57813700  1
  O  O65  1  0.31318500  0.56810600  0.88367700  1
  O  O66  1  0.31874900  0.36832900  0.41444400  1
  O  O67  1  0.32758550  0.53082450  0.20309800  1
