# generated using pymatgen
data_Li2MnSn(PO4)2
_symmetry_space_group_name_H-M   'P 1'
_cell_length_a   4.88174680
_cell_length_b   6.52401500
_cell_length_c   11.02733144
_cell_angle_alpha   90.00000000
_cell_angle_beta   91.38792734
_cell_angle_gamma   90.00000000
_symmetry_Int_Tables_number   1
_chemical_formula_structural   Li2MnSn(PO4)2
_chemical_formula_sum   'Li4 Mn2 Sn2 P4 O16'
_cell_volume   351.10191299
_cell_formula_units_Z   2
loop_
 _symmetry_equiv_pos_site_id
 _symmetry_equiv_pos_as_xyz
  1  'x, y, z'
loop_
 _atom_site_type_symbol
 _atom_site_label
 _atom_site_symmetry_multiplicity
 _atom_site_fract_x
 _atom_site_fract_y
 _atom_site_fract_z
 _atom_site_occupancy
  Li  Li0  1  0.00000000  0.00000000  0.00000000  1
  Li  Li1  1  0.00000000  0.50000000  0.00000000  1
  Li  Li2  1  0.50000000  0.00000000  0.50000000  1
  Li  Li3  1  0.50000000  0.50000000  0.50000000  1
  Mn  Mn4  1  0.55730250  0.25000000  0.21191750  1
  Mn  Mn5  1  0.44269750  0.75000000  0.78808250  1
  Sn  Sn6  1  0.02966550  0.75000000  0.28033850  1
  Sn  Sn7  1  0.97033450  0.25000000  0.71966150  1
  P  P8  1  0.58550850  0.75000000  0.07675550  1
  P  P9  1  0.14217150  0.25000000  0.39606850  1
  P  P10  1  0.85782850  0.75000000  0.60393150  1
  P  P11  1  0.41449150  0.25000000  0.92324450  1
  O  O12  1  0.28984150  0.25000000  0.05201650  1
  O  O13  1  0.26966250  0.75000000  0.07402150  1
  O  O14  1  0.70935050  0.94283200  0.14543350  1
  O  O15  1  0.70935050  0.55716800  0.14543350  1
  O  O16  1  0.28236450  0.43949800  0.33523450  1
  O  O17  1  0.28236450  0.06050200  0.33523450  1
  O  O18  1  0.82904350  0.25000000  0.37937650  1
  O  O19  1  0.75351350  0.75000000  0.46906750  1
  O  O20  1  0.24648650  0.25000000  0.53093250  1
  O  O21  1  0.17095650  0.75000000  0.62062350  1
  O  O22  1  0.71763550  0.93949800  0.66476550  1
  O  O23  1  0.71763550  0.56050200  0.66476550  1
  O  O24  1  0.29064950  0.44283200  0.85456650  1
  O  O25  1  0.29064950  0.05716800  0.85456650  1
  O  O26  1  0.73033750  0.25000000  0.92597850  1
  O  O27  1  0.71015850  0.75000000  0.94798350  1
