# generated using pymatgen
data_Mn5(OF3)2
_symmetry_space_group_name_H-M   'P 1'
_cell_length_a   15.54722400
_cell_length_b   3.21117400
_cell_length_c   10.02319239
_cell_angle_alpha   90.00000000
_cell_angle_beta   129.06641959
_cell_angle_gamma   90.00000000
_symmetry_Int_Tables_number   1
_chemical_formula_structural   Mn5(OF3)2
_chemical_formula_sum   'Mn10 O4 F12'
_cell_volume   388.52340393
_cell_formula_units_Z   2
loop_
 _symmetry_equiv_pos_site_id
 _symmetry_equiv_pos_as_xyz
  1  'x, y, z'
loop_
 _atom_site_type_symbol
 _atom_site_label
 _atom_site_symmetry_multiplicity
 _atom_site_fract_x
 _atom_site_fract_y
 _atom_site_fract_z
 _atom_site_occupancy
  Mn  Mn0  1  0.84551500  0.50000000  0.17300900  1
  Mn  Mn1  1  0.85688700  0.00000000  0.54051400  1
  Mn  Mn2  1  0.14189100  0.00000000  0.45094500  1
  Mn  Mn3  1  0.15117300  0.50000000  0.82621100  1
  Mn  Mn4  1  0.32887800  0.50000000  0.81428600  1
  Mn  Mn5  1  0.34551500  0.00000000  0.17300900  1
  Mn  Mn6  1  0.35688700  0.50000000  0.54051400  1
  Mn  Mn7  1  0.64189100  0.50000000  0.45094500  1
  Mn  Mn8  1  0.65117300  0.00000000  0.82621100  1
  Mn  Mn9  1  0.82887800  0.00000000  0.81428600  1
  O  O10  1  0.32654100  0.00000000  0.66195300  1
  O  O11  1  0.28247400  0.00000000  0.90890000  1
  O  O12  1  0.82654100  0.50000000  0.66195300  1
  O  O13  1  0.78247400  0.50000000  0.90890000  1
  F  F14  1  0.72759600  0.00000000  0.09001200  1
  F  F15  1  0.96491600  0.00000000  0.26601800  1
  F  F16  1  0.87002000  0.50000000  0.41162900  1
  F  F17  1  0.17001800  0.50000000  0.34645600  1
  F  F18  1  0.13313800  0.50000000  0.58959600  1
  F  F19  1  0.03685400  0.00000000  0.73877300  1
  F  F20  1  0.22759600  0.50000000  0.09001200  1
  F  F21  1  0.46491600  0.50000000  0.26601800  1
  F  F22  1  0.37002000  0.00000000  0.41162900  1
  F  F23  1  0.67001800  0.00000000  0.34645600  1
  F  F24  1  0.63313800  0.00000000  0.58959600  1
  F  F25  1  0.53685400  0.50000000  0.73877300  1
