# generated using pymatgen
data_Li4Ti3Fe3(NiO8)2
_symmetry_space_group_name_H-M   'P 1'
_cell_length_a   10.24392600
_cell_length_b   5.92028400
_cell_length_c   9.65408023
_cell_angle_alpha   90.00000000
_cell_angle_beta   90.52302424
_cell_angle_gamma   90.00000000
_symmetry_Int_Tables_number   1
_chemical_formula_structural   Li4Ti3Fe3(NiO8)2
_chemical_formula_sum   'Li8 Ti6 Fe6 Ni4 O32'
_cell_volume   585.46613852
_cell_formula_units_Z   2
loop_
 _symmetry_equiv_pos_site_id
 _symmetry_equiv_pos_as_xyz
  1  'x, y, z'
loop_
 _atom_site_type_symbol
 _atom_site_label
 _atom_site_symmetry_multiplicity
 _atom_site_fract_x
 _atom_site_fract_y
 _atom_site_fract_z
 _atom_site_occupancy
  Li  Li0  1  0.66951100  0.00000000  0.10981100  1
  Li  Li1  1  0.99565200  0.00000000  0.00214300  1
  Li  Li2  1  0.99520400  0.00000000  0.50108300  1
  Li  Li3  1  0.33542700  0.00000000  0.60711500  1
  Li  Li4  1  0.16951100  0.50000000  0.10981100  1
  Li  Li5  1  0.49565200  0.50000000  0.00214300  1
  Li  Li6  1  0.49520400  0.50000000  0.50108300  1
  Li  Li7  1  0.83542700  0.50000000  0.60711500  1
  Ti  Ti8  1  0.58647350  0.75311250  0.78481500  1
  Ti  Ti9  1  0.58647350  0.24688750  0.78481500  1
  Ti  Ti10  1  0.17081100  0.00000000  0.28453200  1
  Ti  Ti11  1  0.08647350  0.25311250  0.78481500  1
  Ti  Ti12  1  0.08647350  0.74688750  0.78481500  1
  Ti  Ti13  1  0.67081100  0.50000000  0.28453200  1
  Fe  Fe14  1  0.83188400  0.00000000  0.78564300  1
  Fe  Fe15  1  0.41612500  0.75375900  0.28583300  1
  Fe  Fe16  1  0.41612500  0.24624100  0.28583300  1
  Fe  Fe17  1  0.33188400  0.50000000  0.78564300  1
  Fe  Fe18  1  0.91612500  0.25375900  0.28583300  1
  Fe  Fe19  1  0.91612500  0.74624100  0.28583300  1
  Ni  Ni20  1  0.66545100  0.00000000  0.51029800  1
  Ni  Ni21  1  0.33433100  0.00000000  0.01054000  1
  Ni  Ni22  1  0.16545100  0.50000000  0.51029800  1
  Ni  Ni23  1  0.83433100  0.50000000  0.01054000  1
  O  O24  1  0.57693050  0.74207850  0.39525800  1
  O  O25  1  0.51911400  0.00000000  0.66718100  1
  O  O26  1  0.65871200  0.00000000  0.89948600  1
  O  O27  1  0.00521200  0.00000000  0.68545400  1
  O  O28  1  0.00611300  0.00000000  0.18561800  1
  O  O29  1  0.57693050  0.25792150  0.39525800  1
  O  O30  1  0.74197600  0.77930400  0.66720500  1
  O  O31  1  0.74197600  0.22069600  0.66720500  1
  O  O32  1  0.16100000  0.00000000  0.89618100  1
  O  O33  1  0.83827600  0.00000000  0.39175100  1
  O  O34  1  0.26254450  0.77648850  0.16692800  1
  O  O35  1  0.26254450  0.22351150  0.16692800  1
  O  O36  1  0.32514600  0.00000000  0.40075500  1
  O  O37  1  0.41836800  0.73816800  0.89298500  1
  O  O38  1  0.48187500  0.00000000  0.16870000  1
  O  O39  1  0.41836800  0.26183200  0.89298500  1
  O  O40  1  0.07693050  0.24207850  0.39525800  1
  O  O41  1  0.01911400  0.50000000  0.66718100  1
  O  O42  1  0.15871200  0.50000000  0.89948600  1
  O  O43  1  0.50521200  0.50000000  0.68545400  1
  O  O44  1  0.50611300  0.50000000  0.18561800  1
  O  O45  1  0.07693050  0.75792150  0.39525800  1
  O  O46  1  0.24197600  0.27930400  0.66720500  1
  O  O47  1  0.24197600  0.72069600  0.66720500  1
  O  O48  1  0.66100000  0.50000000  0.89618100  1
  O  O49  1  0.33827600  0.50000000  0.39175100  1
  O  O50  1  0.76254450  0.27648850  0.16692800  1
  O  O51  1  0.76254450  0.72351150  0.16692800  1
  O  O52  1  0.82514600  0.50000000  0.40075500  1
  O  O53  1  0.91836800  0.23816800  0.89298500  1
  O  O54  1  0.98187500  0.50000000  0.16870000  1
  O  O55  1  0.91836800  0.76183200  0.89298500  1
