# generated using pymatgen
data_Yb4Ni13C4
_symmetry_space_group_name_H-M   'P 1'
_cell_length_a   11.64232800
_cell_length_b   11.76197000
_cell_length_c   3.84563000
_cell_angle_alpha   90.00000000
_cell_angle_beta   90.00000000
_cell_angle_gamma   90.00000000
_symmetry_Int_Tables_number   1
_chemical_formula_structural   Yb4Ni13C4
_chemical_formula_sum   'Yb8 Ni26 C8'
_cell_volume   526.60793033
_cell_formula_units_Z   2
loop_
 _symmetry_equiv_pos_site_id
 _symmetry_equiv_pos_as_xyz
  1  'x, y, z'
loop_
 _atom_site_type_symbol
 _atom_site_label
 _atom_site_symmetry_multiplicity
 _atom_site_fract_x
 _atom_site_fract_y
 _atom_site_fract_z
 _atom_site_occupancy
  Yb  Yb0  1  0.50000000  0.69119000  0.50000000  1
  Yb  Yb1  1  0.50000000  0.30881000  0.50000000  1
  Yb  Yb2  1  0.34988700  0.00000000  0.50000000  1
  Yb  Yb3  1  0.65011300  0.00000000  0.50000000  1
  Yb  Yb4  1  0.00000000  0.19119000  0.50000000  1
  Yb  Yb5  1  0.00000000  0.80881000  0.50000000  1
  Yb  Yb6  1  0.84988700  0.50000000  0.50000000  1
  Yb  Yb7  1  0.15011300  0.50000000  0.50000000  1
  Ni  Ni8  1  0.00000000  0.00000000  0.00000000  1
  Ni  Ni9  1  0.39379800  0.17795100  0.00000000  1
  Ni  Ni10  1  0.60620200  0.82204900  0.00000000  1
  Ni  Ni11  1  0.60620200  0.17795100  0.00000000  1
  Ni  Ni12  1  0.39379800  0.82204900  0.00000000  1
  Ni  Ni13  1  0.25000000  0.25000000  0.50000000  1
  Ni  Ni14  1  0.25000000  0.75000000  0.50000000  1
  Ni  Ni15  1  0.18103200  0.10808700  0.00000000  1
  Ni  Ni16  1  0.81896800  0.89191300  0.00000000  1
  Ni  Ni17  1  0.81896800  0.10808700  0.00000000  1
  Ni  Ni18  1  0.18103200  0.89191300  0.00000000  1
  Ni  Ni19  1  0.12183000  0.00000000  0.50000000  1
  Ni  Ni20  1  0.87817000  0.00000000  0.50000000  1
  Ni  Ni21  1  0.50000000  0.50000000  0.00000000  1
  Ni  Ni22  1  0.89379800  0.67795100  0.00000000  1
  Ni  Ni23  1  0.10620200  0.32204900  0.00000000  1
  Ni  Ni24  1  0.10620200  0.67795100  0.00000000  1
  Ni  Ni25  1  0.89379800  0.32204900  0.00000000  1
  Ni  Ni26  1  0.75000000  0.75000000  0.50000000  1
  Ni  Ni27  1  0.75000000  0.25000000  0.50000000  1
  Ni  Ni28  1  0.68103200  0.60808700  0.00000000  1
  Ni  Ni29  1  0.31896800  0.39191300  0.00000000  1
  Ni  Ni30  1  0.31896800  0.60808700  0.00000000  1
  Ni  Ni31  1  0.68103200  0.39191300  0.00000000  1
  Ni  Ni32  1  0.62183000  0.50000000  0.50000000  1
  Ni  Ni33  1  0.37817000  0.50000000  0.50000000  1
  C  C34  1  0.25000000  0.25000000  0.00000000  1
  C  C35  1  0.25000000  0.75000000  0.00000000  1
  C  C36  1  0.50000000  0.05685300  0.00000000  1
  C  C37  1  0.50000000  0.94314700  0.00000000  1
  C  C38  1  0.75000000  0.75000000  0.00000000  1
  C  C39  1  0.75000000  0.25000000  0.00000000  1
  C  C40  1  0.00000000  0.55685300  0.00000000  1
  C  C41  1  0.00000000  0.44314700  0.00000000  1
