# generated using pymatgen
data_Li4FeCo3(PO4)4
_symmetry_space_group_name_H-M   'P 1'
_cell_length_a   4.76369600
_cell_length_b   6.00885900
_cell_length_c   10.32723874
_cell_angle_alpha   90.00000000
_cell_angle_beta   90.02165394
_cell_angle_gamma   90.00000000
_symmetry_Int_Tables_number   1
_chemical_formula_structural   Li4FeCo3(PO4)4
_chemical_formula_sum   'Li4 Fe1 Co3 P4 O16'
_cell_volume   295.61075990
_cell_formula_units_Z   1
loop_
 _symmetry_equiv_pos_site_id
 _symmetry_equiv_pos_as_xyz
  1  'x, y, z'
loop_
 _atom_site_type_symbol
 _atom_site_label
 _atom_site_symmetry_multiplicity
 _atom_site_fract_x
 _atom_site_fract_y
 _atom_site_fract_z
 _atom_site_occupancy
  Li  Li0  1  0.00097100  0.74977700  0.00107000  1
  Li  Li1  1  0.00097100  0.25022300  0.00107000  1
  Li  Li2  1  0.49968400  0.25062100  0.49911500  1
  Li  Li3  1  0.49968400  0.74937900  0.49911500  1
  Fe  Fe4  1  0.97286500  0.00000000  0.71975500  1
  Co  Co5  1  0.02173800  0.50000000  0.28055500  1
  Co  Co6  1  0.47838500  0.50000000  0.78121600  1
  Co  Co7  1  0.52191900  0.00000000  0.21963700  1
  P  P8  1  0.08400800  0.00000000  0.40458400  1
  P  P9  1  0.41533500  0.00000000  0.90526800  1
  P  P10  1  0.58390300  0.50000000  0.09530300  1
  P  P11  1  0.91604600  0.50000000  0.59421500  1
  O  O12  1  0.20683800  0.00000000  0.54382500  1
  O  O13  1  0.22142700  0.79494500  0.33352100  1
  O  O14  1  0.22142700  0.20505500  0.33352100  1
  O  O15  1  0.23908200  0.50000000  0.59812400  1
  O  O16  1  0.26186600  0.50000000  0.09831200  1
  O  O17  1  0.27942000  0.79397400  0.83464200  1
  O  O18  1  0.27942000  0.20602600  0.83464200  1
  O  O19  1  0.29476800  0.00000000  0.04530100  1
  O  O20  1  0.70526200  0.50000000  0.95497800  1
  O  O21  1  0.72197400  0.29545600  0.16633800  1
  O  O22  1  0.72197400  0.70454400  0.16633800  1
  O  O23  1  0.73710400  0.00000000  0.90248400  1
  O  O24  1  0.76146000  0.00000000  0.40163800  1
  O  O25  1  0.77826600  0.29684300  0.66559700  1
  O  O26  1  0.77826600  0.70315700  0.66559700  1
  O  O27  1  0.79594200  0.50000000  0.45423800  1
