# generated using pymatgen
data_Co2O3F
_symmetry_space_group_name_H-M   'P 1'
_cell_length_a   6.07837400
_cell_length_b   12.06613729
_cell_length_c   6.55114917
_cell_angle_alpha   90.00000000
_cell_angle_beta   90.00000000
_cell_angle_gamma   90.00000000
_symmetry_Int_Tables_number   1
_chemical_formula_structural   Co2O3F
_chemical_formula_sum   'Co16 O24 F8'
_cell_volume   480.47762663
_cell_formula_units_Z   8
loop_
 _symmetry_equiv_pos_site_id
 _symmetry_equiv_pos_as_xyz
  1  'x, y, z'
loop_
 _atom_site_type_symbol
 _atom_site_label
 _atom_site_symmetry_multiplicity
 _atom_site_fract_x
 _atom_site_fract_y
 _atom_site_fract_z
 _atom_site_occupancy
  Co  Co0  1  0.50000000  0.87454700  0.28542850  1
  Co  Co1  1  0.00000000  0.87454700  0.21457150  1
  Co  Co2  1  0.75000000  0.87522300  0.75000000  1
  Co  Co3  1  0.25000000  0.87522300  0.75000000  1
  Co  Co4  1  0.50000000  0.62545300  0.78542850  1
  Co  Co5  1  0.00000000  0.62545300  0.71457150  1
  Co  Co6  1  0.75000000  0.12477700  0.25000000  1
  Co  Co7  1  0.25000000  0.12477700  0.25000000  1
  Co  Co8  1  0.00000000  0.37454700  0.28542850  1
  Co  Co9  1  0.50000000  0.37454700  0.21457150  1
  Co  Co10  1  0.25000000  0.37522300  0.75000000  1
  Co  Co11  1  0.75000000  0.37522300  0.75000000  1
  Co  Co12  1  0.00000000  0.12545300  0.78542850  1
  Co  Co13  1  0.50000000  0.12545300  0.71457150  1
  Co  Co14  1  0.25000000  0.62477700  0.25000000  1
  Co  Co15  1  0.75000000  0.62477700  0.25000000  1
  O  O16  1  0.75000000  0.72859900  0.75000000  1
  O  O17  1  0.25000000  0.72859900  0.75000000  1
  O  O18  1  0.75000000  0.77140100  0.25000000  1
  O  O19  1  0.25000000  0.77140100  0.25000000  1
  O  O20  1  0.50000000  0.12377500  0.43073750  1
  O  O21  1  0.50000000  0.87622500  0.56926250  1
  O  O22  1  0.00000000  0.12377500  0.06926250  1
  O  O23  1  0.00000000  0.87622500  0.93073750  1
  O  O24  1  0.25000000  0.02167200  0.75000000  1
  O  O25  1  0.75000000  0.02167200  0.75000000  1
  O  O26  1  0.25000000  0.97832800  0.25000000  1
  O  O27  1  0.75000000  0.97832800  0.25000000  1
  O  O28  1  0.25000000  0.22859900  0.75000000  1
  O  O29  1  0.75000000  0.22859900  0.75000000  1
  O  O30  1  0.25000000  0.27140100  0.25000000  1
  O  O31  1  0.75000000  0.27140100  0.25000000  1
  O  O32  1  0.00000000  0.62377500  0.43073750  1
  O  O33  1  0.00000000  0.37622500  0.56926250  1
  O  O34  1  0.50000000  0.62377500  0.06926250  1
  O  O35  1  0.50000000  0.37622500  0.93073750  1
  O  O36  1  0.75000000  0.52167200  0.75000000  1
  O  O37  1  0.25000000  0.52167200  0.75000000  1
  O  O38  1  0.75000000  0.47832800  0.25000000  1
  O  O39  1  0.25000000  0.47832800  0.25000000  1
  F  F40  1  0.50000000  0.62574500  0.46833150  1
  F  F41  1  0.00000000  0.87425500  0.53166850  1
  F  F42  1  0.00000000  0.62574500  0.03166850  1
  F  F43  1  0.50000000  0.87425500  0.96833150  1
  F  F44  1  0.00000000  0.12574500  0.46833150  1
  F  F45  1  0.50000000  0.37425500  0.53166850  1
  F  F46  1  0.50000000  0.12574500  0.03166850  1
  F  F47  1  0.00000000  0.37425500  0.96833150  1
