# generated using pymatgen
data_Mn11Fe(PO4)12
_symmetry_space_group_name_H-M   'P 1'
_cell_length_a   4.92978000
_cell_length_b   18.10340300
_cell_length_c   9.82961893
_cell_angle_alpha   90.00000000
_cell_angle_beta   90.11245104
_cell_angle_gamma   90.00000000
_symmetry_Int_Tables_number   1
_chemical_formula_structural   Mn11Fe(PO4)12
_chemical_formula_sum   'Mn11 Fe1 P12 O48'
_cell_volume   877.25045711
_cell_formula_units_Z   1
loop_
 _symmetry_equiv_pos_site_id
 _symmetry_equiv_pos_as_xyz
  1  'x, y, z'
loop_
 _atom_site_type_symbol
 _atom_site_label
 _atom_site_symmetry_multiplicity
 _atom_site_fract_x
 _atom_site_fract_y
 _atom_site_fract_z
 _atom_site_occupancy
  Mn  Mn0  1  0.06986800  0.00000000  0.28451100  1
  Mn  Mn1  1  0.06986400  0.33366500  0.28442600  1
  Mn  Mn2  1  0.06986400  0.66633500  0.28442600  1
  Mn  Mn3  1  0.43230300  0.33279900  0.78312000  1
  Mn  Mn4  1  0.43230300  0.66720100  0.78312000  1
  Mn  Mn5  1  0.43005900  0.00000000  0.78420400  1
  Mn  Mn6  1  0.56956500  0.83323000  0.21555300  1
  Mn  Mn7  1  0.56956500  0.16677000  0.21555300  1
  Mn  Mn8  1  0.56855700  0.50000000  0.21589000  1
  Mn  Mn9  1  0.92896500  0.83299600  0.71484300  1
  Mn  Mn10  1  0.92896500  0.16700400  0.71484300  1
  Fe  Fe11  1  0.95826300  0.50000000  0.72453600  1
  P  P12  1  0.08495600  0.83322300  0.40062700  1
  P  P13  1  0.08495600  0.16677700  0.40062700  1
  P  P14  1  0.08662900  0.50000000  0.40002500  1
  P  P15  1  0.41516900  0.83326300  0.90059900  1
  P  P16  1  0.41516900  0.16673700  0.90059900  1
  P  P17  1  0.41294000  0.50000000  0.90391300  1
  P  P18  1  0.58453000  0.00000000  0.09939500  1
  P  P19  1  0.58388600  0.33341600  0.09927000  1
  P  P20  1  0.58388600  0.66658400  0.09927000  1
  P  P21  1  0.91466800  0.00000000  0.59896100  1
  P  P22  1  0.91500100  0.33471400  0.59935600  1
  P  P23  1  0.91500100  0.66528600  0.59935600  1
  O  O24  1  0.14632800  0.83318000  0.55498000  1
  O  O25  1  0.14632800  0.16682000  0.55498000  1
  O  O26  1  0.14923200  0.50000000  0.55299100  1
  O  O27  1  0.22746800  0.76655400  0.32935200  1
  O  O28  1  0.22768800  0.90000500  0.32936700  1
  O  O29  1  0.22768800  0.09999500  0.32936700  1
  O  O30  1  0.22746800  0.23344600  0.32935200  1
  O  O31  1  0.22817700  0.43324200  0.32748000  1
  O  O32  1  0.22817700  0.56675800  0.32748000  1
  O  O33  1  0.22558700  0.00000000  0.61852200  1
  O  O34  1  0.22679500  0.33370300  0.61828800  1
  O  O35  1  0.22679500  0.66629700  0.61828800  1
  O  O36  1  0.27378100  0.00000000  0.11885300  1
  O  O37  1  0.27336700  0.66689800  0.11858000  1
  O  O38  1  0.27336700  0.33310200  0.11858000  1
  O  O39  1  0.27208600  0.76637400  0.82895200  1
  O  O40  1  0.27211900  0.89988500  0.82865000  1
  O  O41  1  0.27208600  0.23362600  0.82895200  1
  O  O42  1  0.26440200  0.43418600  0.82966200  1
  O  O43  1  0.27211900  0.10011500  0.82865000  1
  O  O44  1  0.26440200  0.56581400  0.82966200  1
  O  O45  1  0.35381000  0.83336200  0.05435700  1
  O  O46  1  0.35381000  0.16663800  0.05435700  1
  O  O47  1  0.34437800  0.50000000  0.05650600  1
  O  O48  1  0.64569700  0.00000000  0.94520100  1
  O  O49  1  0.64482500  0.33404600  0.94497400  1
  O  O50  1  0.64482500  0.66595400  0.94497400  1
  O  O51  1  0.72756400  0.93326300  0.17084100  1
  O  O52  1  0.72756400  0.06673700  0.17084100  1
  O  O53  1  0.72737500  0.26667700  0.17052400  1
  O  O54  1  0.72687800  0.59983600  0.17029400  1
  O  O55  1  0.72737500  0.73332300  0.17052400  1
  O  O56  1  0.72687800  0.40016400  0.17029400  1
  O  O57  1  0.72579600  0.83308100  0.88075900  1
  O  O58  1  0.72579600  0.16691900  0.88075900  1
  O  O59  1  0.71937800  0.50000000  0.88256600  1
  O  O60  1  0.77405500  0.83326900  0.38128900  1
  O  O61  1  0.77597500  0.50000000  0.38012800  1
  O  O62  1  0.77405500  0.16673100  0.38128900  1
  O  O63  1  0.77208200  0.93325300  0.67054600  1
  O  O64  1  0.77208200  0.06674700  0.67054600  1
  O  O65  1  0.77323700  0.26775300  0.67163900  1
  O  O66  1  0.77323700  0.73224700  0.67163900  1
  O  O67  1  0.77637900  0.59812700  0.67064900  1
  O  O68  1  0.77637900  0.40187300  0.67064900  1
  O  O69  1  0.85310200  0.00000000  0.44498200  1
  O  O70  1  0.85353700  0.33392000  0.44543300  1
  O  O71  1  0.85353700  0.66608000  0.44543300  1
