# generated using pymatgen
data_Li8PrO6
_symmetry_space_group_name_H-M   'P 1'
_cell_length_a   5.72660210
_cell_length_b   5.72660210
_cell_length_c   16.84794424
_cell_angle_alpha   90.00000000
_cell_angle_beta   90.00000000
_cell_angle_gamma   120.00000000
_symmetry_Int_Tables_number   1
_chemical_formula_structural   Li8PrO6
_chemical_formula_sum   'Li24 Pr3 O18'
_cell_volume   478.48856555
_cell_formula_units_Z   3
loop_
 _symmetry_equiv_pos_site_id
 _symmetry_equiv_pos_as_xyz
  1  'x, y, z'
loop_
 _atom_site_type_symbol
 _atom_site_label
 _atom_site_symmetry_multiplicity
 _atom_site_fract_x
 _atom_site_fract_y
 _atom_site_fract_z
 _atom_site_occupancy
  Li  Li0  1  0.33333333  0.66666667  0.29540767  1
  Li  Li1  1  0.37513533  0.34607967  0.12433967  1
  Li  Li2  1  0.65392033  0.02905567  0.12433967  1
  Li  Li3  1  0.97094433  0.62486467  0.12433967  1
  Li  Li4  1  0.29153133  0.98725367  0.20899367  1
  Li  Li5  1  0.01274633  0.30427767  0.20899367  1
  Li  Li6  1  0.33333333  0.66666667  0.03792567  1
  Li  Li7  1  0.69572233  0.70846867  0.20899367  1
  Li  Li8  1  0.00000000  0.00000000  0.62874100  1
  Li  Li9  1  0.04180200  0.67941300  0.45767300  1
  Li  Li10  1  0.32058700  0.36238900  0.45767300  1
  Li  Li11  1  0.63761100  0.95819800  0.45767300  1
  Li  Li12  1  0.95819800  0.32058700  0.54232700  1
  Li  Li13  1  0.67941300  0.63761100  0.54232700  1
  Li  Li14  1  0.00000000  0.00000000  0.37125900  1
  Li  Li15  1  0.36238900  0.04180200  0.54232700  1
  Li  Li16  1  0.66666667  0.33333333  0.96207433  1
  Li  Li17  1  0.70846867  0.01274633  0.79100633  1
  Li  Li18  1  0.98725367  0.69572233  0.79100633  1
  Li  Li19  1  0.30427767  0.29153133  0.79100633  1
  Li  Li20  1  0.62486467  0.65392033  0.87566033  1
  Li  Li21  1  0.34607967  0.97094433  0.87566033  1
  Li  Li22  1  0.66666667  0.33333333  0.70459233  1
  Li  Li23  1  0.02905567  0.37513533  0.87566033  1
  Pr  Pr24  1  0.00000000  0.00000000  0.00000000  1
  Pr  Pr25  1  0.66666667  0.33333333  0.33333333  1
  Pr  Pr26  1  0.33333333  0.66666667  0.66666667  1
  O  O27  1  0.66627567  0.69031833  0.08973533  1
  O  O28  1  0.64262400  0.99960900  0.24359800  1
  O  O29  1  0.00039100  0.64301500  0.24359800  1
  O  O30  1  0.30968167  0.97595733  0.08973533  1
  O  O31  1  0.02404267  0.33372433  0.08973533  1
  O  O32  1  0.35698500  0.35737600  0.24359800  1
  O  O33  1  0.33294233  0.02365167  0.42306867  1
  O  O34  1  0.30929067  0.33294233  0.57693133  1
  O  O35  1  0.66705767  0.97634833  0.57693133  1
  O  O36  1  0.97634833  0.30929067  0.42306867  1
  O  O37  1  0.69070933  0.66705767  0.42306867  1
  O  O38  1  0.02365167  0.69070933  0.57693133  1
  O  O39  1  0.99960900  0.35698500  0.75640200  1
  O  O40  1  0.97595733  0.66627567  0.91026467  1
  O  O41  1  0.33372433  0.30968167  0.91026467  1
  O  O42  1  0.64301500  0.64262400  0.75640200  1
  O  O43  1  0.35737600  0.00039100  0.75640200  1
  O  O44  1  0.69031833  0.02404267  0.91026467  1
