# generated using pymatgen
data_Sr2LiFe2N3
_symmetry_space_group_name_H-M   'P 1'
_cell_length_a   6.53908800
_cell_length_b   11.25721800
_cell_length_c   6.55091168
_cell_angle_alpha   90.00000000
_cell_angle_beta   92.19135109
_cell_angle_gamma   90.00000000
_symmetry_Int_Tables_number   1
_chemical_formula_structural   Sr2LiFe2N3
_chemical_formula_sum   'Sr8 Li4 Fe8 N12'
_cell_volume   481.87266064
_cell_formula_units_Z   4
loop_
 _symmetry_equiv_pos_site_id
 _symmetry_equiv_pos_as_xyz
  1  'x, y, z'
loop_
 _atom_site_type_symbol
 _atom_site_label
 _atom_site_symmetry_multiplicity
 _atom_site_fract_x
 _atom_site_fract_y
 _atom_site_fract_z
 _atom_site_occupancy
  Sr  Sr0  1  0.24766600  0.92962500  0.90068500  1
  Sr  Sr1  1  0.75233400  0.92962500  0.59931500  1
  Sr  Sr2  1  0.75233400  0.07037500  0.09931500  1
  Sr  Sr3  1  0.24766600  0.07037500  0.40068500  1
  Sr  Sr4  1  0.74766600  0.42962500  0.90068500  1
  Sr  Sr5  1  0.25233400  0.42962500  0.59931500  1
  Sr  Sr6  1  0.25233400  0.57037500  0.09931500  1
  Sr  Sr7  1  0.74766600  0.57037500  0.40068500  1
  Li  Li8  1  0.50000000  0.69277600  0.75000000  1
  Li  Li9  1  0.50000000  0.30722400  0.25000000  1
  Li  Li10  1  0.00000000  0.19277600  0.75000000  1
  Li  Li11  1  0.00000000  0.80722400  0.25000000  1
  Fe  Fe12  1  0.63213250  0.79652650  0.10311200  1
  Fe  Fe13  1  0.36786750  0.20347350  0.89688800  1
  Fe  Fe14  1  0.36786750  0.79652650  0.39688800  1
  Fe  Fe15  1  0.63213250  0.20347350  0.60311200  1
  Fe  Fe16  1  0.13213250  0.29652650  0.10311200  1
  Fe  Fe17  1  0.86786750  0.70347350  0.89688800  1
  Fe  Fe18  1  0.86786750  0.29652650  0.39688800  1
  Fe  Fe19  1  0.13213250  0.70347350  0.60311200  1
  N  N20  1  0.50000000  0.08961100  0.75000000  1
  N  N21  1  0.50000000  0.91038900  0.25000000  1
  N  N22  1  0.14053700  0.85961900  0.51590300  1
  N  N23  1  0.14053700  0.14038100  0.01590300  1
  N  N24  1  0.85946300  0.14038100  0.48409700  1
  N  N25  1  0.85946300  0.85961900  0.98409700  1
  N  N26  1  0.00000000  0.58961100  0.75000000  1
  N  N27  1  0.00000000  0.41038900  0.25000000  1
  N  N28  1  0.64053700  0.35961900  0.51590300  1
  N  N29  1  0.64053700  0.64038100  0.01590300  1
  N  N30  1  0.35946300  0.64038100  0.48409700  1
  N  N31  1  0.35946300  0.35961900  0.98409700  1
