# generated using pymatgen
data_V3FeSn2(PO4)6
_symmetry_space_group_name_H-M   'P 1'
_cell_length_a   8.61359433
_cell_length_b   8.61359433
_cell_length_c   22.50992370
_cell_angle_alpha   90.00000000
_cell_angle_beta   90.00000000
_cell_angle_gamma   120.00000000
_symmetry_Int_Tables_number   1
_chemical_formula_structural   V3FeSn2(PO4)6
_chemical_formula_sum   'V9 Fe3 Sn6 P18 O72'
_cell_volume   1446.35027622
_cell_formula_units_Z   3
loop_
 _symmetry_equiv_pos_site_id
 _symmetry_equiv_pos_as_xyz
  1  'x, y, z'
loop_
 _atom_site_type_symbol
 _atom_site_label
 _atom_site_symmetry_multiplicity
 _atom_site_fract_x
 _atom_site_fract_y
 _atom_site_fract_z
 _atom_site_occupancy
  V  V0  1  0.33333333  0.66666667  0.31469867  1
  V  V1  1  0.66666667  0.33333333  0.18625133  1
  V  V2  1  0.33333333  0.66666667  0.01825267  1
  V  V3  1  0.00000000  0.00000000  0.64803200  1
  V  V4  1  0.33333333  0.66666667  0.51958467  1
  V  V5  1  0.00000000  0.00000000  0.35158600  1
  V  V6  1  0.66666667  0.33333333  0.98136533  1
  V  V7  1  0.00000000  0.00000000  0.85291800  1
  V  V8  1  0.66666667  0.33333333  0.68491933  1
  Fe  Fe9  1  0.00000000  0.00000000  0.14955800  1
  Fe  Fe10  1  0.66666667  0.33333333  0.48289133  1
  Fe  Fe11  1  0.33333333  0.66666667  0.81622467  1
  Sn  Sn12  1  0.00000000  0.00000000  0.00415500  1
  Sn  Sn13  1  0.33333333  0.66666667  0.16685667  1
  Sn  Sn14  1  0.66666667  0.33333333  0.33748833  1
  Sn  Sn15  1  0.00000000  0.00000000  0.50019000  1
  Sn  Sn16  1  0.33333333  0.66666667  0.67082167  1
  Sn  Sn17  1  0.66666667  0.33333333  0.83352333  1
  P  P18  1  0.00010733  0.28765067  0.24986867  1
  P  P19  1  0.71234933  0.71245667  0.24986867  1
  P  P20  1  0.28754333  0.99989267  0.24986867  1
  P  P21  1  0.38067767  0.33407033  0.08292333  1
  P  P22  1  0.95339267  0.61932233  0.08292333  1
  P  P23  1  0.66592967  0.04660733  0.08292333  1
  P  P24  1  0.66677400  0.62098400  0.58320200  1
  P  P25  1  0.37901600  0.04579000  0.58320200  1
  P  P26  1  0.95421000  0.33322600  0.58320200  1
  P  P27  1  0.04734433  0.66740367  0.41625667  1
  P  P28  1  0.62005933  0.95265567  0.41625667  1
  P  P29  1  0.33259633  0.37994067  0.41625667  1
  P  P30  1  0.33344067  0.95431733  0.91653533  1
  P  P31  1  0.04568267  0.37912333  0.91653533  1
  P  P32  1  0.62087667  0.66655933  0.91653533  1
  P  P33  1  0.71401100  0.00073700  0.74959000  1
  P  P34  1  0.28672600  0.28598900  0.74959000  1
  P  P35  1  0.99926300  0.71327400  0.74959000  1
  O  O36  1  0.82245067  0.79731733  0.30700233  1
  O  O37  1  0.20268267  0.02513333  0.30700233  1
  O  O38  1  0.97486667  0.17754933  0.30700233  1
  O  O39  1  0.83213667  0.30890233  0.24457833  1
  O  O40  1  0.02888567  0.20772933  0.19339633  1
  O  O41  1  0.16880100  0.47789300  0.25677000  1
  O  O42  1  0.69109767  0.52323433  0.24457833  1
  O  O43  1  0.52210700  0.69090800  0.25677000  1
  O  O44  1  0.48899300  0.35752200  0.13992000  1
  O  O45  1  0.30909200  0.83119900  0.25677000  1
  O  O46  1  0.19331767  0.16412033  0.08651133  1
  O  O47  1  0.86852900  0.51100700  0.13992000  1
  O  O48  1  0.79227067  0.82115633  0.19339633  1
  O  O49  1  0.47676567  0.16786333  0.24457833  1
  O  O50  1  0.36032467  0.50322833  0.07766433  1
  O  O51  1  0.17884367  0.97111433  0.19339633  1
  O  O52  1  0.14290367  0.63967533  0.07766433  1
  O  O53  1  0.97080267  0.80668233  0.08651133  1
  O  O54  1  0.49677167  0.85709633  0.07766433  1
  O  O55  1  0.64247800  0.13147100  0.13992000  1
  O  O56  1  0.83587967  0.02919733  0.08651133  1
  O  O57  1  0.68441600  0.15434600  0.02588000  1
  O  O58  1  0.46993000  0.31558400  0.02588000  1
  O  O59  1  0.84565400  0.53007000  0.02588000  1
  O  O60  1  0.48911733  0.13065067  0.64033567  1
  O  O61  1  0.86934933  0.35846667  0.64033567  1
  O  O62  1  0.64153333  0.51088267  0.64033567  1
  O  O63  1  0.49880333  0.64223567  0.57791167  1
  O  O64  1  0.69555233  0.54106267  0.52672967  1
  O  O65  1  0.83546767  0.81122633  0.59010333  1
  O  O66  1  0.35776433  0.85656767  0.57791167  1
  O  O67  1  0.18877367  0.02424133  0.59010333  1
  O  O68  1  0.15565967  0.69085533  0.47325333  1
  O  O69  1  0.97575867  0.16453233  0.59010333  1
  O  O70  1  0.85998433  0.49745367  0.41984467  1
  O  O71  1  0.53519567  0.84434033  0.47325333  1
  O  O72  1  0.45893733  0.15448967  0.52672967  1
  O  O73  1  0.14343233  0.50119667  0.57791167  1
  O  O74  1  0.02699133  0.83656167  0.41099767  1
  O  O75  1  0.84551033  0.30444767  0.52672967  1
  O  O76  1  0.80957033  0.97300867  0.41099767  1
  O  O77  1  0.63746933  0.14001567  0.41984467  1
  O  O78  1  0.16343833  0.19042967  0.41099767  1
  O  O79  1  0.30914467  0.46480433  0.47325333  1
  O  O80  1  0.50254633  0.36253067  0.41984467  1
  O  O81  1  0.35108267  0.48767933  0.35921333  1
  O  O82  1  0.13659667  0.64891733  0.35921333  1
  O  O83  1  0.51232067  0.86340333  0.35921333  1
  O  O84  1  0.15578400  0.46398400  0.97366900  1
  O  O85  1  0.53601600  0.69180000  0.97366900  1
  O  O86  1  0.30820000  0.84421600  0.97366900  1
  O  O87  1  0.16547000  0.97556900  0.91124500  1
  O  O88  1  0.36221900  0.87439600  0.86006300  1
  O  O89  1  0.50213433  0.14455967  0.92343667  1
  O  O90  1  0.02443100  0.18990100  0.91124500  1
  O  O91  1  0.85544033  0.35757467  0.92343667  1
  O  O92  1  0.82232633  0.02418867  0.80658667  1
  O  O93  1  0.64242533  0.49786567  0.92343667  1
  O  O94  1  0.52665100  0.83078700  0.75317800  1
  O  O95  1  0.20186233  0.17767367  0.80658667  1
  O  O96  1  0.12560400  0.48782300  0.86006300  1
  O  O97  1  0.81009900  0.83453000  0.91124500  1
  O  O98  1  0.69365800  0.16989500  0.74433100  1
  O  O99  1  0.51217700  0.63778100  0.86006300  1
  O  O100  1  0.47623700  0.30634200  0.74433100  1
  O  O101  1  0.30413600  0.47334900  0.75317800  1
  O  O102  1  0.83010500  0.52376300  0.74433100  1
  O  O103  1  0.97581133  0.79813767  0.80658667  1
  O  O104  1  0.16921300  0.69586400  0.75317800  1
  O  O105  1  0.01774933  0.82101267  0.69254667  1
  O  O106  1  0.80326333  0.98225067  0.69254667  1
  O  O107  1  0.17898733  0.19673667  0.69254667  1
