# generated using pymatgen
data_Fe4O7F
_symmetry_space_group_name_H-M   'P 1'
_cell_length_a   6.01619600
_cell_length_b   13.36830000
_cell_length_c   6.44156400
_cell_angle_alpha   90.00000000
_cell_angle_beta   90.00000000
_cell_angle_gamma   90.00000000
_symmetry_Int_Tables_number   1
_chemical_formula_structural   Fe4O7F
_chemical_formula_sum   'Fe16 O28 F4'
_cell_volume   518.07124239
_cell_formula_units_Z   4
loop_
 _symmetry_equiv_pos_site_id
 _symmetry_equiv_pos_as_xyz
  1  'x, y, z'
loop_
 _atom_site_type_symbol
 _atom_site_label
 _atom_site_symmetry_multiplicity
 _atom_site_fract_x
 _atom_site_fract_y
 _atom_site_fract_z
 _atom_site_occupancy
  Fe  Fe0  1  0.24293550  0.87982650  0.75000000  1
  Fe  Fe1  1  0.75706450  0.87982650  0.75000000  1
  Fe  Fe2  1  0.50000000  0.87481200  0.25000000  1
  Fe  Fe3  1  0.00000000  0.88031700  0.25000000  1
  Fe  Fe4  1  0.50000000  0.61968300  0.75000000  1
  Fe  Fe5  1  0.00000000  0.62518800  0.75000000  1
  Fe  Fe6  1  0.74293550  0.62017350  0.25000000  1
  Fe  Fe7  1  0.25706450  0.62017350  0.25000000  1
  Fe  Fe8  1  0.74293550  0.37982650  0.75000000  1
  Fe  Fe9  1  0.25706450  0.37982650  0.75000000  1
  Fe  Fe10  1  0.00000000  0.37481200  0.25000000  1
  Fe  Fe11  1  0.50000000  0.38031700  0.25000000  1
  Fe  Fe12  1  0.00000000  0.11968300  0.75000000  1
  Fe  Fe13  1  0.50000000  0.12518800  0.75000000  1
  Fe  Fe14  1  0.24293550  0.12017350  0.25000000  1
  Fe  Fe15  1  0.75706450  0.12017350  0.25000000  1
  O  O16  1  0.00000000  0.97306500  0.75000000  1
  O  O17  1  0.50000000  0.96770300  0.75000000  1
  O  O18  1  0.25320400  0.87397300  0.44320200  1
  O  O19  1  0.74679600  0.87397300  0.44320200  1
  O  O20  1  0.25320400  0.87397300  0.05679800  1
  O  O21  1  0.75320400  0.62602700  0.55679800  1
  O  O22  1  0.24679600  0.62602700  0.55679800  1
  O  O23  1  0.74679600  0.87397300  0.05679800  1
  O  O24  1  0.00000000  0.78167500  0.75000000  1
  O  O25  1  0.50000000  0.52693500  0.25000000  1
  O  O26  1  0.00000000  0.53229700  0.25000000  1
  O  O27  1  0.50000000  0.71832500  0.25000000  1
  O  O28  1  0.75320400  0.62602700  0.94320200  1
  O  O29  1  0.24679600  0.62602700  0.94320200  1
  O  O30  1  0.50000000  0.47306500  0.75000000  1
  O  O31  1  0.00000000  0.46770300  0.75000000  1
  O  O32  1  0.75320400  0.37397300  0.44320200  1
  O  O33  1  0.24679600  0.37397300  0.44320200  1
  O  O34  1  0.75320400  0.37397300  0.05679800  1
  O  O35  1  0.25320400  0.12602700  0.55679800  1
  O  O36  1  0.74679600  0.12602700  0.55679800  1
  O  O37  1  0.24679600  0.37397300  0.05679800  1
  O  O38  1  0.50000000  0.28167500  0.75000000  1
  O  O39  1  0.00000000  0.02693500  0.25000000  1
  O  O40  1  0.50000000  0.03229700  0.25000000  1
  O  O41  1  0.00000000  0.21832500  0.25000000  1
  O  O42  1  0.25320400  0.12602700  0.94320200  1
  O  O43  1  0.74679600  0.12602700  0.94320200  1
  F  F44  1  0.50000000  0.77671300  0.75000000  1
  F  F45  1  0.00000000  0.72328700  0.25000000  1
  F  F46  1  0.00000000  0.27671300  0.75000000  1
  F  F47  1  0.50000000  0.22328700  0.25000000  1
