# generated using pymatgen
data_Li2VFe(PO4)2
_symmetry_space_group_name_H-M   'P 1'
_cell_length_a   4.76315781
_cell_length_b   6.09033800
_cell_length_c   10.48156369
_cell_angle_alpha   90.00000000
_cell_angle_beta   90.16157685
_cell_angle_gamma   90.00000000
_symmetry_Int_Tables_number   1
_chemical_formula_structural   Li2VFe(PO4)2
_chemical_formula_sum   'Li4 V2 Fe2 P4 O16'
_cell_volume   304.06099820
_cell_formula_units_Z   2
loop_
 _symmetry_equiv_pos_site_id
 _symmetry_equiv_pos_as_xyz
  1  'x, y, z'
loop_
 _atom_site_type_symbol
 _atom_site_label
 _atom_site_symmetry_multiplicity
 _atom_site_fract_x
 _atom_site_fract_y
 _atom_site_fract_z
 _atom_site_occupancy
  Li  Li0  1  0.00000000  0.00000000  0.00000000  1
  Li  Li1  1  0.00000000  0.50000000  0.00000000  1
  Li  Li2  1  0.50000000  0.00000000  0.50000000  1
  Li  Li3  1  0.50000000  0.50000000  0.50000000  1
  V  V4  1  0.48451150  0.75000000  0.77638550  1
  V  V5  1  0.51548850  0.25000000  0.22361450  1
  Fe  Fe6  1  0.02589250  0.75000000  0.27846850  1
  Fe  Fe7  1  0.97410750  0.25000000  0.72153150  1
  P  P8  1  0.58954850  0.75000000  0.09271350  1
  P  P9  1  0.41045150  0.25000000  0.90728650  1
  P  P10  1  0.08086350  0.25000000  0.40773350  1
  P  P11  1  0.91913650  0.75000000  0.59226650  1
  O  O12  1  0.29051450  0.25000000  0.04512350  1
  O  O13  1  0.70948550  0.75000000  0.95487650  1
  O  O14  1  0.26695250  0.75000000  0.09746250  1
  O  O15  1  0.73304750  0.25000000  0.90253750  1
  O  O16  1  0.75809950  0.25000000  0.40541650  1
  O  O17  1  0.24190050  0.75000000  0.59458350  1
  O  O18  1  0.79376250  0.75000000  0.45555750  1
  O  O19  1  0.20623750  0.25000000  0.54444250  1
  O  O20  1  0.72569650  0.95288600  0.16210050  1
  O  O21  1  0.72569650  0.54711400  0.16210050  1
  O  O22  1  0.27430350  0.45288600  0.83789950  1
  O  O23  1  0.27430350  0.04711400  0.83789950  1
  O  O24  1  0.21343350  0.45316800  0.33663550  1
  O  O25  1  0.21343350  0.04683200  0.33663550  1
  O  O26  1  0.78656650  0.95316800  0.66336450  1
  O  O27  1  0.78656650  0.54683200  0.66336450  1
