# generated using pymatgen
data_Cs9AlO4
_symmetry_space_group_name_H-M   'P 1'
_cell_length_a   15.21953200
_cell_length_b   15.21953200
_cell_length_c   12.67157000
_cell_angle_alpha   90.00000000
_cell_angle_beta   90.00000000
_cell_angle_gamma   90.00000000
_symmetry_Int_Tables_number   1
_chemical_formula_structural   Cs9AlO4
_chemical_formula_sum   'Cs36 Al4 O16'
_cell_volume   2935.16840059
_cell_formula_units_Z   4
loop_
 _symmetry_equiv_pos_site_id
 _symmetry_equiv_pos_as_xyz
  1  'x, y, z'
loop_
 _atom_site_type_symbol
 _atom_site_label
 _atom_site_symmetry_multiplicity
 _atom_site_fract_x
 _atom_site_fract_y
 _atom_site_fract_z
 _atom_site_occupancy
  Cs  Cs0  1  0.58320100  0.08320100  0.00000000  1
  Cs  Cs1  1  0.91679900  0.41679900  0.50000000  1
  Cs  Cs2  1  0.08320100  0.41679900  0.00000000  1
  Cs  Cs3  1  0.41679900  0.08320100  0.50000000  1
  Cs  Cs4  1  0.00000000  0.00000000  0.00000000  1
  Cs  Cs5  1  0.00000000  0.00000000  0.50000000  1
  Cs  Cs6  1  0.26893900  0.00000000  0.25000000  1
  Cs  Cs7  1  0.73106100  0.00000000  0.25000000  1
  Cs  Cs8  1  0.00000000  0.73106100  0.25000000  1
  Cs  Cs9  1  0.00000000  0.26893900  0.25000000  1
  Cs  Cs10  1  0.23106100  0.50000000  0.25000000  1
  Cs  Cs11  1  0.76893900  0.50000000  0.25000000  1
  Cs  Cs12  1  0.50000000  0.76893900  0.25000000  1
  Cs  Cs13  1  0.50000000  0.23106100  0.25000000  1
  Cs  Cs14  1  0.16745750  0.66745750  0.00000000  1
  Cs  Cs15  1  0.33254250  0.83254250  0.50000000  1
  Cs  Cs16  1  0.16745750  0.33254250  0.50000000  1
  Cs  Cs17  1  0.33254250  0.16745750  0.00000000  1
  Cs  Cs18  1  0.08320100  0.58320100  0.50000000  1
  Cs  Cs19  1  0.41679900  0.91679900  0.00000000  1
  Cs  Cs20  1  0.58320100  0.91679900  0.50000000  1
  Cs  Cs21  1  0.91679900  0.58320100  0.00000000  1
  Cs  Cs22  1  0.50000000  0.50000000  0.50000000  1
  Cs  Cs23  1  0.50000000  0.50000000  0.00000000  1
  Cs  Cs24  1  0.76893900  0.50000000  0.75000000  1
  Cs  Cs25  1  0.23106100  0.50000000  0.75000000  1
  Cs  Cs26  1  0.50000000  0.23106100  0.75000000  1
  Cs  Cs27  1  0.50000000  0.76893900  0.75000000  1
  Cs  Cs28  1  0.73106100  0.00000000  0.75000000  1
  Cs  Cs29  1  0.26893900  0.00000000  0.75000000  1
  Cs  Cs30  1  0.00000000  0.26893900  0.75000000  1
  Cs  Cs31  1  0.00000000  0.73106100  0.75000000  1
  Cs  Cs32  1  0.66745750  0.16745750  0.50000000  1
  Cs  Cs33  1  0.83254250  0.33254250  0.00000000  1
  Cs  Cs34  1  0.66745750  0.83254250  0.00000000  1
  Cs  Cs35  1  0.83254250  0.66745750  0.50000000  1
  Al  Al36  1  0.00000000  0.50000000  0.25000000  1
  Al  Al37  1  0.50000000  0.00000000  0.25000000  1
  Al  Al38  1  0.50000000  0.00000000  0.75000000  1
  Al  Al39  1  0.00000000  0.50000000  0.75000000  1
  O  O40  1  0.06841600  0.56841600  0.16510800  1
  O  O41  1  0.93158400  0.43158400  0.16510800  1
  O  O42  1  0.06841600  0.43158400  0.33489200  1
  O  O43  1  0.93158400  0.56841600  0.33489200  1
  O  O44  1  0.43158400  0.93158400  0.33489200  1
  O  O45  1  0.56841600  0.06841600  0.33489200  1
  O  O46  1  0.56841600  0.93158400  0.16510800  1
  O  O47  1  0.43158400  0.06841600  0.16510800  1
  O  O48  1  0.56841600  0.06841600  0.66510800  1
  O  O49  1  0.43158400  0.93158400  0.66510800  1
  O  O50  1  0.56841600  0.93158400  0.83489200  1
  O  O51  1  0.43158400  0.06841600  0.83489200  1
  O  O52  1  0.93158400  0.43158400  0.83489200  1
  O  O53  1  0.06841600  0.56841600  0.83489200  1
  O  O54  1  0.06841600  0.43158400  0.66510800  1
  O  O55  1  0.93158400  0.56841600  0.66510800  1
