# generated using pymatgen
data_K2SrIn7
_symmetry_space_group_name_H-M   'P 1'
_cell_length_a   5.13015400
_cell_length_b   12.21191600
_cell_length_c   20.11289300
_cell_angle_alpha   90.00000000
_cell_angle_beta   90.00000000
_cell_angle_gamma   90.00000000
_symmetry_Int_Tables_number   1
_chemical_formula_structural   K2SrIn7
_chemical_formula_sum   'K8 Sr4 In28'
_cell_volume   1260.05282896
_cell_formula_units_Z   4
loop_
 _symmetry_equiv_pos_site_id
 _symmetry_equiv_pos_as_xyz
  1  'x, y, z'
loop_
 _atom_site_type_symbol
 _atom_site_label
 _atom_site_symmetry_multiplicity
 _atom_site_fract_x
 _atom_site_fract_y
 _atom_site_fract_z
 _atom_site_occupancy
  K  K0  1  0.00000000  0.16131500  0.44841700  1
  K  K1  1  0.50000000  0.33868500  0.94841700  1
  K  K2  1  0.50000000  0.33868500  0.55158300  1
  K  K3  1  0.00000000  0.16131500  0.05158300  1
  K  K4  1  0.50000000  0.66131500  0.44841700  1
  K  K5  1  0.00000000  0.83868500  0.94841700  1
  K  K6  1  0.00000000  0.83868500  0.55158300  1
  K  K7  1  0.50000000  0.66131500  0.05158300  1
  Sr  Sr8  1  0.50000000  0.15836300  0.75000000  1
  Sr  Sr9  1  0.00000000  0.34163700  0.25000000  1
  Sr  Sr10  1  0.00000000  0.65836300  0.75000000  1
  Sr  Sr11  1  0.50000000  0.84163700  0.25000000  1
  In  In12  1  0.50000000  0.37785500  0.36979300  1
  In  In13  1  0.00000000  0.12214500  0.86979300  1
  In  In14  1  0.00000000  0.12214500  0.63020700  1
  In  In15  1  0.50000000  0.37785500  0.13020700  1
  In  In16  1  0.00000000  0.45685200  0.42901900  1
  In  In17  1  0.50000000  0.04314800  0.92901900  1
  In  In18  1  0.50000000  0.04314800  0.57098100  1
  In  In19  1  0.00000000  0.45685200  0.07098100  1
  In  In20  1  0.50000000  0.45520000  0.75000000  1
  In  In21  1  0.00000000  0.04480000  0.25000000  1
  In  In22  1  0.50000000  0.13916400  0.32558500  1
  In  In23  1  0.00000000  0.36083600  0.82558500  1
  In  In24  1  0.00000000  0.36083600  0.67441500  1
  In  In25  1  0.50000000  0.13916400  0.17441500  1
  In  In26  1  0.00000000  0.87785500  0.36979300  1
  In  In27  1  0.50000000  0.62214500  0.86979300  1
  In  In28  1  0.50000000  0.62214500  0.63020700  1
  In  In29  1  0.00000000  0.87785500  0.13020700  1
  In  In30  1  0.50000000  0.95685200  0.42901900  1
  In  In31  1  0.00000000  0.54314800  0.92901900  1
  In  In32  1  0.00000000  0.54314800  0.57098100  1
  In  In33  1  0.50000000  0.95685200  0.07098100  1
  In  In34  1  0.00000000  0.95520000  0.75000000  1
  In  In35  1  0.50000000  0.54480000  0.25000000  1
  In  In36  1  0.00000000  0.63916400  0.32558500  1
  In  In37  1  0.50000000  0.86083600  0.82558500  1
  In  In38  1  0.50000000  0.86083600  0.67441500  1
  In  In39  1  0.00000000  0.63916400  0.17441500  1
