# generated using pymatgen
data_Li4V3P8O29
_symmetry_space_group_name_H-M   'P 1'
_cell_length_a   16.98705400
_cell_length_b   9.71213800
_cell_length_c   14.37083649
_cell_angle_alpha   90.00000000
_cell_angle_beta   91.45059473
_cell_angle_gamma   90.00000000
_symmetry_Int_Tables_number   1
_chemical_formula_structural   Li4V3P8O29
_chemical_formula_sum   'Li16 V12 P32 O116'
_cell_volume   2370.14959202
_cell_formula_units_Z   4
loop_
 _symmetry_equiv_pos_site_id
 _symmetry_equiv_pos_as_xyz
  1  'x, y, z'
loop_
 _atom_site_type_symbol
 _atom_site_label
 _atom_site_symmetry_multiplicity
 _atom_site_fract_x
 _atom_site_fract_y
 _atom_site_fract_z
 _atom_site_occupancy
  Li  Li0  1  0.95437400  0.72953100  0.05983500  1
  Li  Li1  1  0.95437400  0.27046900  0.55983500  1
  Li  Li2  1  0.67013550  0.57067050  0.06130800  1
  Li  Li3  1  0.83417100  0.06160500  0.43945800  1
  Li  Li4  1  0.67013550  0.42932950  0.56130800  1
  Li  Li5  1  0.83417100  0.93839500  0.93945800  1
  Li  Li6  1  0.50762400  0.55707400  0.98709200  1
  Li  Li7  1  0.50762400  0.44292600  0.48709200  1
  Li  Li8  1  0.45437400  0.22953100  0.05983500  1
  Li  Li9  1  0.45437400  0.77046900  0.55983500  1
  Li  Li10  1  0.17013550  0.07067050  0.06130800  1
  Li  Li11  1  0.33417100  0.56160500  0.43945800  1
  Li  Li12  1  0.17013550  0.92932950  0.56130800  1
  Li  Li13  1  0.33417100  0.43839500  0.93945800  1
  Li  Li14  1  0.00762400  0.05707400  0.98709200  1
  Li  Li15  1  0.00762400  0.94292600  0.48709200  1
  V  V16  1  0.78353350  0.21982950  0.24372800  1
  V  V17  1  0.71632550  0.27995150  0.75713300  1
  V  V18  1  0.78353350  0.78017050  0.74372800  1
  V  V19  1  0.71632550  0.72004850  0.25713300  1
  V  V20  1  0.50036500  0.06120000  0.24800300  1
  V  V21  1  0.50036500  0.93880000  0.74800300  1
  V  V22  1  0.28353350  0.71982950  0.24372800  1
  V  V23  1  0.21632550  0.77995150  0.75713300  1
  V  V24  1  0.28353350  0.28017050  0.74372800  1
  V  V25  1  0.21632550  0.22004850  0.25713300  1
  V  V26  1  0.00036500  0.56120000  0.24800300  1
  V  V27  1  0.00036500  0.43880000  0.74800300  1
  P  P28  1  0.95727150  0.73415850  0.84470600  1
  P  P29  1  0.89326350  0.80636850  0.33381100  1
  P  P30  1  0.95727150  0.26584150  0.34470600  1
  P  P31  1  0.82938200  0.50630600  0.13275600  1
  P  P32  1  0.82938200  0.49369400  0.63275600  1
  P  P33  1  0.89326350  0.19363150  0.83381100  1
  P  P34  1  0.83849600  0.06965000  0.65508800  1
  P  P35  1  0.65873250  0.57281050  0.84623300  1
  P  P36  1  0.83849600  0.93035000  0.15508800  1
  P  P37  1  0.65873250  0.42718950  0.34623300  1
  P  P38  1  0.60824000  0.30859300  0.16473000  1
  P  P39  1  0.67063700  0.00584300  0.36399000  1
  P  P40  1  0.67063700  0.99415700  0.86399000  1
  P  P41  1  0.54026600  0.24436500  0.66499800  1
  P  P42  1  0.60824000  0.69140700  0.66473000  1
  P  P43  1  0.54026600  0.75563500  0.16499800  1
  P  P44  1  0.45727150  0.23415850  0.84470600  1
  P  P45  1  0.39326350  0.30636850  0.33381100  1
  P  P46  1  0.45727150  0.76584150  0.34470600  1
  P  P47  1  0.32938200  0.00630600  0.13275600  1
  P  P48  1  0.32938200  0.99369400  0.63275600  1
  P  P49  1  0.39326350  0.69363150  0.83381100  1
  P  P50  1  0.33849600  0.56965000  0.65508800  1
  P  P51  1  0.15873250  0.07281050  0.84623300  1
  P  P52  1  0.33849600  0.43035000  0.15508800  1
  P  P53  1  0.15873250  0.92718950  0.34623300  1
  P  P54  1  0.10824000  0.80859300  0.16473000  1
  P  P55  1  0.17063700  0.50584300  0.36399000  1
  P  P56  1  0.17063700  0.49415700  0.86399000  1
  P  P57  1  0.04026600  0.74436500  0.66499800  1
  P  P58  1  0.10824000  0.19140700  0.66473000  1
  P  P59  1  0.04026600  0.25563500  0.16499800  1
  O  O60  1  0.99808750  0.80626750  0.58420500  1
  O  O61  1  0.95856100  0.69749200  0.32868800  1
  O  O62  1  0.87513500  0.88842000  0.06534800  1
  O  O63  1  0.87114950  0.79297350  0.83073200  1
  O  O64  1  0.95596550  0.57898550  0.82795800  1
  O  O65  1  0.90587600  0.58225100  0.16425000  1
  O  O66  1  0.95596550  0.42101450  0.32795800  1
  O  O67  1  0.99808750  0.19373250  0.08420500  1
  O  O68  1  0.95856100  0.30250800  0.82868800  1
  O  O69  1  0.83242200  0.64264900  0.67960800  1
  O  O70  1  0.81134800  0.73435100  0.32868600  1
  O  O71  1  0.90587600  0.41774900  0.66425000  1
  O  O72  1  0.81457650  0.50315450  0.03040300  1
  O  O73  1  0.81457650  0.49684550  0.53040300  1
  O  O74  1  0.83242200  0.35735100  0.17960800  1
  O  O75  1  0.73581000  0.65233400  0.82950200  1
  O  O76  1  0.75746850  0.57743550  0.18075600  1
  O  O77  1  0.87114950  0.20702650  0.33073200  1
  O  O78  1  0.89994850  0.10628150  0.73819400  1
  O  O79  1  0.87513500  0.11158000  0.56534800  1
  O  O80  1  0.90439150  0.09621850  0.91347200  1
  O  O81  1  0.81134800  0.26564900  0.82868600  1
  O  O82  1  0.75746850  0.42256450  0.68075600  1
  O  O83  1  0.82549550  0.08839450  0.16099000  1
  O  O84  1  0.73581000  0.34766600  0.32950200  1
  O  O85  1  0.67444300  0.58444500  0.33267600  1
  O  O86  1  0.89994850  0.89371850  0.23819400  1
  O  O87  1  0.90439150  0.90378150  0.41347200  1
  O  O88  1  0.60413050  0.58857050  0.58841400  1
  O  O89  1  0.82549550  0.91160550  0.66099000  1
  O  O90  1  0.76121700  0.14571700  0.67543400  1
  O  O91  1  0.67444300  0.41555500  0.83267600  1
  O  O92  1  0.74534250  0.07067550  0.31634400  1
  O  O93  1  0.68907800  0.23147900  0.17379100  1
  O  O94  1  0.60413050  0.41142950  0.08841400  1
  O  O95  1  0.62069150  0.40155050  0.43716300  1
  O  O96  1  0.59773150  0.38510050  0.26412300  1
  O  O97  1  0.62917450  0.28825450  0.66748200  1
  O  O98  1  0.74534250  0.92932450  0.81634400  1
  O  O99  1  0.76121700  0.85428300  0.17543400  1
  O  O100  1  0.66764000  0.14825300  0.82413700  1
  O  O101  1  0.68311300  0.99077100  0.96642300  1
  O  O102  1  0.68311300  0.00922900  0.46642300  1
  O  O103  1  0.59734600  0.07523500  0.32089200  1
  O  O104  1  0.68907800  0.76852100  0.67379100  1
  O  O105  1  0.66764000  0.85174700  0.32413700  1
  O  O106  1  0.54053900  0.20263300  0.15931900  1
  O  O107  1  0.50684150  0.30304850  0.76203700  1
  O  O108  1  0.98971300  0.78106900  0.93671400  1
  O  O109  1  0.53629200  0.08462800  0.67291600  1
  O  O110  1  0.59734600  0.92476500  0.82089200  1
  O  O111  1  0.53629200  0.91537200  0.17291600  1
  O  O112  1  0.62917450  0.71174550  0.16748200  1
  O  O113  1  0.62069150  0.59844950  0.93716300  1
  O  O114  1  0.59773150  0.61489950  0.76412300  1
  O  O115  1  0.54053900  0.79736700  0.65931900  1
  O  O116  1  0.98971300  0.21893100  0.43671400  1
  O  O117  1  0.50684150  0.69695150  0.26203700  1
  O  O118  1  0.49808750  0.30626750  0.58420500  1
  O  O119  1  0.45856100  0.19749200  0.32868800  1
  O  O120  1  0.37513500  0.38842000  0.06534800  1
  O  O121  1  0.37114950  0.29297350  0.83073200  1
  O  O122  1  0.45596550  0.07898550  0.82795800  1
  O  O123  1  0.40587600  0.08225100  0.16425000  1
  O  O124  1  0.45596550  0.92101450  0.32795800  1
  O  O125  1  0.49808750  0.69373250  0.08420500  1
  O  O126  1  0.45856100  0.80250800  0.82868800  1
  O  O127  1  0.33242200  0.14264900  0.67960800  1
  O  O128  1  0.31134800  0.23435100  0.32868600  1
  O  O129  1  0.40587600  0.91774900  0.66425000  1
  O  O130  1  0.31457650  0.00315450  0.03040300  1
  O  O131  1  0.31457650  0.99684550  0.53040300  1
  O  O132  1  0.33242200  0.85735100  0.17960800  1
  O  O133  1  0.23581000  0.15233400  0.82950200  1
  O  O134  1  0.25746850  0.07743550  0.18075600  1
  O  O135  1  0.37114950  0.70702650  0.33073200  1
  O  O136  1  0.39994850  0.60628150  0.73819400  1
  O  O137  1  0.37513500  0.61158000  0.56534800  1
  O  O138  1  0.40439150  0.59621850  0.91347200  1
  O  O139  1  0.31134800  0.76564900  0.82868600  1
  O  O140  1  0.25746850  0.92256450  0.68075600  1
  O  O141  1  0.32549550  0.58839450  0.16099000  1
  O  O142  1  0.23581000  0.84766600  0.32950200  1
  O  O143  1  0.17444300  0.08444500  0.33267600  1
  O  O144  1  0.39994850  0.39371850  0.23819400  1
  O  O145  1  0.40439150  0.40378150  0.41347200  1
  O  O146  1  0.10413050  0.08857050  0.58841400  1
  O  O147  1  0.32549550  0.41160550  0.66099000  1
  O  O148  1  0.26121700  0.64571700  0.67543400  1
  O  O149  1  0.17444300  0.91555500  0.83267600  1
  O  O150  1  0.24534250  0.57067550  0.31634400  1
  O  O151  1  0.18907800  0.73147900  0.17379100  1
  O  O152  1  0.10413050  0.91142950  0.08841400  1
  O  O153  1  0.12069150  0.90155050  0.43716300  1
  O  O154  1  0.09773150  0.88510050  0.26412300  1
  O  O155  1  0.12917450  0.78825450  0.66748200  1
  O  O156  1  0.24534250  0.42932450  0.81634400  1
  O  O157  1  0.26121700  0.35428300  0.17543400  1
  O  O158  1  0.16764000  0.64825300  0.82413700  1
  O  O159  1  0.18311300  0.49077100  0.96642300  1
  O  O160  1  0.18311300  0.50922900  0.46642300  1
  O  O161  1  0.09734600  0.57523500  0.32089200  1
  O  O162  1  0.18907800  0.26852100  0.67379100  1
  O  O163  1  0.16764000  0.35174700  0.32413700  1
  O  O164  1  0.04053900  0.70263300  0.15931900  1
  O  O165  1  0.00684150  0.80304850  0.76203700  1
  O  O166  1  0.48971300  0.28106900  0.93671400  1
  O  O167  1  0.03629200  0.58462800  0.67291600  1
  O  O168  1  0.09734600  0.42476500  0.82089200  1
  O  O169  1  0.03629200  0.41537200  0.17291600  1
  O  O170  1  0.12917450  0.21174550  0.16748200  1
  O  O171  1  0.12069150  0.09844950  0.93716300  1
  O  O172  1  0.09773150  0.11489950  0.76412300  1
  O  O173  1  0.04053900  0.29736700  0.65931900  1
  O  O174  1  0.48971300  0.71893100  0.43671400  1
  O  O175  1  0.00684150  0.19695150  0.26203700  1
