# generated using pymatgen
data_Li4Mn3Cr2Cu3O16
_symmetry_space_group_name_H-M   'P 1'
_cell_length_a   10.21594589
_cell_length_b   5.80479779
_cell_length_c   9.43740590
_cell_angle_alpha   90.00000000
_cell_angle_beta   91.55220137
_cell_angle_gamma   90.00000000
_symmetry_Int_Tables_number   1
_chemical_formula_structural   Li4Mn3Cr2Cu3O16
_chemical_formula_sum   'Li8 Mn6 Cr4 Cu6 O32'
_cell_volume   559.44696829
_cell_formula_units_Z   2
loop_
 _symmetry_equiv_pos_site_id
 _symmetry_equiv_pos_as_xyz
  1  'x, y, z'
loop_
 _atom_site_type_symbol
 _atom_site_label
 _atom_site_symmetry_multiplicity
 _atom_site_fract_x
 _atom_site_fract_y
 _atom_site_fract_z
 _atom_site_occupancy
  Li  Li0  1  0.66735000  0.00000000  0.10451500  1
  Li  Li1  1  0.50108500  0.50000000  0.00163200  1
  Li  Li2  1  0.50272750  0.50000000  0.50975700  1
  Li  Li3  1  0.83635050  0.50000000  0.60329700  1
  Li  Li4  1  0.16735000  0.50000000  0.10451500  1
  Li  Li5  1  0.00108500  0.00000000  0.00163200  1
  Li  Li6  1  0.00272750  0.00000000  0.50975700  1
  Li  Li7  1  0.33635050  0.00000000  0.60329700  1
  Mn  Mn8  1  0.82745000  0.00000000  0.78558900  1
  Mn  Mn9  1  0.91584300  0.74693600  0.28481900  1
  Mn  Mn10  1  0.91584300  0.25306400  0.28481900  1
  Mn  Mn11  1  0.32745000  0.50000000  0.78558900  1
  Mn  Mn12  1  0.41584300  0.24693600  0.28481900  1
  Mn  Mn13  1  0.41584300  0.75306400  0.28481900  1
  Cr  Cr14  1  0.66752300  0.00000000  0.51022700  1
  Cr  Cr15  1  0.83129950  0.50000000  0.01002300  1
  Cr  Cr16  1  0.16752300  0.50000000  0.51022700  1
  Cr  Cr17  1  0.33129950  0.00000000  0.01002300  1
  Cu  Cu18  1  0.58395850  0.24461050  0.78669200  1
  Cu  Cu19  1  0.58395850  0.75538950  0.78669200  1
  Cu  Cu20  1  0.66899150  0.50000000  0.28533500  1
  Cu  Cu21  1  0.08395850  0.74461050  0.78669200  1
  Cu  Cu22  1  0.08395850  0.25538950  0.78669200  1
  Cu  Cu23  1  0.16899150  0.00000000  0.28533500  1
  O  O24  1  0.57621350  0.25517750  0.40260200  1
  O  O25  1  0.52150500  0.00000000  0.65460900  1
  O  O26  1  0.66799550  0.00000000  0.88890200  1
  O  O27  1  0.99692700  0.00000000  0.69937600  1
  O  O28  1  0.99496800  0.00000000  0.18945400  1
  O  O29  1  0.57621350  0.74482250  0.40260200  1
  O  O30  1  0.74748200  0.21861900  0.65559800  1
  O  O31  1  0.74748200  0.78138100  0.65559800  1
  O  O32  1  0.65994100  0.50000000  0.90906100  1
  O  O33  1  0.83929700  0.00000000  0.39532700  1
  O  O34  1  0.76437250  0.72523450  0.15889300  1
  O  O35  1  0.76437250  0.27476550  0.15889300  1
  O  O36  1  0.83991550  0.50000000  0.39076500  1
  O  O37  1  0.90821300  0.75909200  0.90620500  1
  O  O38  1  0.98263350  0.50000000  0.16450700  1
  O  O39  1  0.90821300  0.24090800  0.90620500  1
  O  O40  1  0.07621350  0.75517750  0.40260200  1
  O  O41  1  0.02150500  0.50000000  0.65460900  1
  O  O42  1  0.16799550  0.50000000  0.88890200  1
  O  O43  1  0.49692700  0.50000000  0.69937600  1
  O  O44  1  0.49496800  0.50000000  0.18945400  1
  O  O45  1  0.07621350  0.24482250  0.40260200  1
  O  O46  1  0.24748200  0.71861900  0.65559800  1
  O  O47  1  0.24748200  0.28138100  0.65559800  1
  O  O48  1  0.15994100  0.00000000  0.90906100  1
  O  O49  1  0.33929700  0.50000000  0.39532700  1
  O  O50  1  0.26437250  0.22523450  0.15889300  1
  O  O51  1  0.26437250  0.77476550  0.15889300  1
  O  O52  1  0.33991550  0.00000000  0.39076500  1
  O  O53  1  0.40821300  0.25909200  0.90620500  1
  O  O54  1  0.48263350  0.00000000  0.16450700  1
  O  O55  1  0.40821300  0.74090800  0.90620500  1
