# generated using pymatgen
data_Li2Mg2MnFe(PO4)4
_symmetry_space_group_name_H-M   'P 1'
_cell_length_a   4.83109981
_cell_length_b   5.97514816
_cell_length_c   10.09558719
_cell_angle_alpha   90.03171970
_cell_angle_beta   90.74853871
_cell_angle_gamma   90.38980973
_symmetry_Int_Tables_number   1
_chemical_formula_structural   Li2Mg2MnFe(PO4)4
_chemical_formula_sum   'Li2 Mg2 Mn1 Fe1 P4 O16'
_cell_volume   291.39296818
_cell_formula_units_Z   1
loop_
 _symmetry_equiv_pos_site_id
 _symmetry_equiv_pos_as_xyz
  1  'x, y, z'
loop_
 _atom_site_type_symbol
 _atom_site_label
 _atom_site_symmetry_multiplicity
 _atom_site_fract_x
 _atom_site_fract_y
 _atom_site_fract_z
 _atom_site_occupancy
  Li  Li0  1  0.00322500  0.53360000  0.99703550  1
  Li  Li1  1  0.49163700  0.96645800  0.49478450  1
  Mg  Mg2  1  0.02700550  0.74972350  0.27996550  1
  Mg  Mg3  1  0.47597850  0.74969050  0.77668500  1
  Mn  Mn4  1  0.55365850  0.24897150  0.21729950  1
  Fe  Fe5  1  0.97195950  0.24966350  0.72293350  1
  P  P6  1  0.08859100  0.25027900  0.39964150  1
  P  P7  1  0.41682450  0.25026550  0.90360400  1
  P  P8  1  0.57201950  0.74888650  0.09603550  1
  P  P9  1  0.92307000  0.75100100  0.59714200  1
  O  O10  1  0.15645900  0.24972000  0.54999000  1
  O  O11  1  0.23414000  0.04112500  0.33846550  1
  O  O12  1  0.21896750  0.45035350  0.32657650  1
  O  O13  1  0.23735300  0.76345800  0.61010700  1
  O  O14  1  0.25916550  0.73669250  0.10920600  1
  O  O15  1  0.27594900  0.05307300  0.82698550  1
  O  O16  1  0.26015050  0.45520550  0.83846350  1
  O  O17  1  0.33973700  0.25024600  0.05269200  1
  O  O18  1  0.67272500  0.74609800  0.95296950  1
  O  O19  1  0.72730700  0.54462800  0.16674900  1
  O  O20  1  0.70780950  0.94845150  0.17576400  1
  O  O21  1  0.73143650  0.26199350  0.88602750  1
  O  O22  1  0.76686450  0.23910750  0.38095750  1
  O  O23  1  0.79515600  0.54898300  0.67690650  1
  O  O24  1  0.77561400  0.95769800  0.66909550  1
  O  O25  1  0.81719750  0.75462850  0.45391600  1
