# generated using pymatgen
data_LiNiPO4
_symmetry_space_group_name_H-M   'P 1'
_cell_length_a   4.92084900
_cell_length_b   5.98041604
_cell_length_c   11.33804106
_cell_angle_alpha   90.00000000
_cell_angle_beta   90.00000000
_cell_angle_gamma   90.00000000
_symmetry_Int_Tables_number   1
_chemical_formula_structural   LiNiPO4
_chemical_formula_sum   'Li4 Ni4 P4 O16'
_cell_volume   333.66408449
_cell_formula_units_Z   4
loop_
 _symmetry_equiv_pos_site_id
 _symmetry_equiv_pos_as_xyz
  1  'x, y, z'
loop_
 _atom_site_type_symbol
 _atom_site_label
 _atom_site_symmetry_multiplicity
 _atom_site_fract_x
 _atom_site_fract_y
 _atom_site_fract_z
 _atom_site_occupancy
  Li  Li0  1  0.01166800  0.28518450  0.06186750  1
  Li  Li1  1  0.51166800  0.78518450  0.43813250  1
  Li  Li2  1  0.01166800  0.21481550  0.56186750  1
  Li  Li3  1  0.51166800  0.71481550  0.93813250  1
  Ni  Ni4  1  0.51484300  0.45263150  0.66811050  1
  Ni  Ni5  1  0.01484300  0.95263150  0.83188950  1
  Ni  Ni6  1  0.51484300  0.04736850  0.16811050  1
  Ni  Ni7  1  0.01484300  0.54736850  0.33188950  1
  P  P8  1  0.00197600  0.77085150  0.08976150  1
  P  P9  1  0.50197600  0.27085150  0.41023850  1
  P  P10  1  0.00197600  0.72914850  0.58976150  1
  P  P11  1  0.50197600  0.22914850  0.91023850  1
  O  O12  1  0.60815100  0.25973650  0.03849750  1
  O  O13  1  0.10815100  0.75973650  0.46150250  1
  O  O14  1  0.60815100  0.24026350  0.53849750  1
  O  O15  1  0.10815100  0.74026350  0.96150250  1
  O  O16  1  0.68762700  0.79146050  0.08898750  1
  O  O17  1  0.18762700  0.29146050  0.41101250  1
  O  O18  1  0.68762700  0.70853950  0.58898750  1
  O  O19  1  0.18762700  0.20853950  0.91101250  1
  O  O20  1  0.08545300  0.55736950  0.16004250  1
  O  O21  1  0.58545300  0.05736950  0.33995750  1
  O  O22  1  0.08545300  0.94263050  0.66004250  1
  O  O23  1  0.58545300  0.44263050  0.83995750  1
  O  O24  1  0.11981400  0.98770750  0.14680450  1
  O  O25  1  0.61981400  0.48770750  0.35319550  1
  O  O26  1  0.11981400  0.51229250  0.64680450  1
  O  O27  1  0.61981400  0.01229250  0.85319550  1
