# generated using pymatgen
data_Li6Fe5CuO12
_symmetry_space_group_name_H-M   'P 1'
_cell_length_a   5.15837800
_cell_length_b   8.97058000
_cell_length_c   10.16114886
_cell_angle_alpha   90.00000000
_cell_angle_beta   90.38706097
_cell_angle_gamma   90.00000000
_symmetry_Int_Tables_number   1
_chemical_formula_structural   Li6Fe5CuO12
_chemical_formula_sum   'Li12 Fe10 Cu2 O24'
_cell_volume   470.18264093
_cell_formula_units_Z   2
loop_
 _symmetry_equiv_pos_site_id
 _symmetry_equiv_pos_as_xyz
  1  'x, y, z'
loop_
 _atom_site_type_symbol
 _atom_site_label
 _atom_site_symmetry_multiplicity
 _atom_site_fract_x
 _atom_site_fract_y
 _atom_site_fract_z
 _atom_site_occupancy
  Li  Li0  1  0.82384550  0.83910350  0.72518900  1
  Li  Li1  1  0.32384550  0.66089650  0.72518900  1
  Li  Li2  1  0.69412200  0.00000000  0.27820300  1
  Li  Li3  1  0.30587800  0.00000000  0.72179700  1
  Li  Li4  1  0.17615450  0.83910350  0.27481100  1
  Li  Li5  1  0.67615450  0.66089650  0.27481100  1
  Li  Li6  1  0.32384550  0.33910350  0.72518900  1
  Li  Li7  1  0.82384550  0.16089650  0.72518900  1
  Li  Li8  1  0.19412200  0.50000000  0.27820300  1
  Li  Li9  1  0.80587800  0.50000000  0.72179700  1
  Li  Li10  1  0.67615450  0.33910350  0.27481100  1
  Li  Li11  1  0.17615450  0.16089650  0.27481100  1
  Fe  Fe12  1  0.50000000  0.00000000  0.00000000  1
  Fe  Fe13  1  0.50000000  0.83654500  0.50000000  1
  Fe  Fe14  1  0.00000000  0.66345500  0.50000000  1
  Fe  Fe15  1  0.50000000  0.66751400  0.00000000  1
  Fe  Fe16  1  0.00000000  0.83248600  0.00000000  1
  Fe  Fe17  1  0.00000000  0.50000000  0.00000000  1
  Fe  Fe18  1  0.00000000  0.33654500  0.50000000  1
  Fe  Fe19  1  0.50000000  0.16345500  0.50000000  1
  Fe  Fe20  1  0.00000000  0.16751400  0.00000000  1
  Fe  Fe21  1  0.50000000  0.33248600  0.00000000  1
  Cu  Cu22  1  0.00000000  0.00000000  0.50000000  1
  Cu  Cu23  1  0.50000000  0.50000000  0.50000000  1
  O  O24  1  0.84386500  0.00000000  0.10505300  1
  O  O25  1  0.67583650  0.83439850  0.89820300  1
  O  O26  1  0.17583650  0.66560150  0.89820300  1
  O  O27  1  0.66068950  0.66860250  0.61100900  1
  O  O28  1  0.16068950  0.83139750  0.61100900  1
  O  O29  1  0.63539700  0.00000000  0.62081700  1
  O  O30  1  0.36460300  0.00000000  0.37918300  1
  O  O31  1  0.33931050  0.66860250  0.38899100  1
  O  O32  1  0.83931050  0.83139750  0.38899100  1
  O  O33  1  0.32416350  0.83439850  0.10179700  1
  O  O34  1  0.82416350  0.66560150  0.10179700  1
  O  O35  1  0.15613500  0.00000000  0.89494700  1
  O  O36  1  0.34386500  0.50000000  0.10505300  1
  O  O37  1  0.17583650  0.33439850  0.89820300  1
  O  O38  1  0.67583650  0.16560150  0.89820300  1
  O  O39  1  0.16068950  0.16860250  0.61100900  1
  O  O40  1  0.66068950  0.33139750  0.61100900  1
  O  O41  1  0.13539700  0.50000000  0.62081700  1
  O  O42  1  0.86460300  0.50000000  0.37918300  1
  O  O43  1  0.83931050  0.16860250  0.38899100  1
  O  O44  1  0.33931050  0.33139750  0.38899100  1
  O  O45  1  0.82416350  0.33439850  0.10179700  1
  O  O46  1  0.32416350  0.16560150  0.10179700  1
  O  O47  1  0.65613500  0.50000000  0.89494700  1
