# generated using pymatgen
data_Li5Mn(SiO4)2
_symmetry_space_group_name_H-M   'P 1'
_cell_length_a   7.26849465
_cell_length_b   7.61247950
_cell_length_c   6.35040683
_cell_angle_alpha   90.00000000
_cell_angle_beta   91.82158237
_cell_angle_gamma   90.00000000
_symmetry_Int_Tables_number   1
_chemical_formula_structural   Li5Mn(SiO4)2
_chemical_formula_sum   'Li10 Mn2 Si4 O16'
_cell_volume   351.19848779
_cell_formula_units_Z   2
loop_
 _symmetry_equiv_pos_site_id
 _symmetry_equiv_pos_as_xyz
  1  'x, y, z'
loop_
 _atom_site_type_symbol
 _atom_site_label
 _atom_site_symmetry_multiplicity
 _atom_site_fract_x
 _atom_site_fract_y
 _atom_site_fract_z
 _atom_site_occupancy
  Li  Li0  1  0.50000000  0.80556375  0.50000000  1
  Li  Li1  1  0.50000000  0.17155175  0.00000000  1
  Li  Li2  1  0.50000000  0.81610725  0.00000000  1
  Li  Li3  1  0.81473250  0.00918325  0.75773625  1
  Li  Li4  1  0.18526750  0.00918325  0.24226375  1
  Li  Li5  1  0.00000000  0.30556375  0.50000000  1
  Li  Li6  1  0.00000000  0.67155175  0.00000000  1
  Li  Li7  1  0.00000000  0.31610725  0.00000000  1
  Li  Li8  1  0.31473250  0.50918325  0.75773625  1
  Li  Li9  1  0.68526750  0.50918325  0.24226375  1
  Mn  Mn10  1  0.50000000  0.18010025  0.50000000  1
  Mn  Mn11  1  0.00000000  0.68010025  0.50000000  1
  Si  Si12  1  0.82705650  0.00720025  0.24011225  1
  Si  Si13  1  0.17294350  0.00720025  0.75988775  1
  Si  Si14  1  0.32705650  0.50720025  0.24011225  1
  Si  Si15  1  0.67294350  0.50720025  0.75988775  1
  O  O16  1  0.68999050  0.00296725  0.44868775  1
  O  O17  1  0.31000950  0.00296725  0.55131225  1
  O  O18  1  0.70101425  0.99603025  0.02611175  1
  O  O19  1  0.29898575  0.99603025  0.97388825  1
  O  O20  1  0.53198550  0.32735025  0.74058800  1
  O  O21  1  0.46801450  0.32735025  0.25941200  1
  O  O22  1  0.53024875  0.67042825  0.74824550  1
  O  O23  1  0.46975125  0.67042825  0.25175450  1
  O  O24  1  0.18999050  0.50296725  0.44868775  1
  O  O25  1  0.81000950  0.50296725  0.55131225  1
  O  O26  1  0.20101425  0.49603025  0.02611175  1
  O  O27  1  0.79898575  0.49603025  0.97388825  1
  O  O28  1  0.03198550  0.82735025  0.74058800  1
  O  O29  1  0.96801450  0.82735025  0.25941200  1
  O  O30  1  0.03024875  0.17042825  0.74824550  1
  O  O31  1  0.96975125  0.17042825  0.25175450  1
