# generated using pymatgen
data_Mn15NiO32
_symmetry_space_group_name_H-M   'P 1'
_cell_length_a   11.67116162
_cell_length_b   11.67116162
_cell_length_c   14.20509541
_cell_angle_alpha   90.00000000
_cell_angle_beta   90.00000000
_cell_angle_gamma   120.00000000
_symmetry_Int_Tables_number   1
_chemical_formula_structural   Mn15NiO32
_chemical_formula_sum   'Mn45 Ni3 O96'
_cell_volume   1675.72578821
_cell_formula_units_Z   3
loop_
 _symmetry_equiv_pos_site_id
 _symmetry_equiv_pos_as_xyz
  1  'x, y, z'
loop_
 _atom_site_type_symbol
 _atom_site_label
 _atom_site_symmetry_multiplicity
 _atom_site_fract_x
 _atom_site_fract_y
 _atom_site_fract_z
 _atom_site_occupancy
  Mn  Mn0  1  0.74978700  0.49957400  0.49900500  1
  Mn  Mn1  1  0.16666667  0.33333333  0.33333333  1
  Mn  Mn2  1  0.25021300  0.50042600  0.50099500  1
  Mn  Mn3  1  0.00000000  0.74949700  0.50000000  1
  Mn  Mn4  1  0.74949700  0.74949700  0.50000000  1
  Mn  Mn5  1  0.25021300  0.74978700  0.50099500  1
  Mn  Mn6  1  0.49957400  0.74978700  0.50099500  1
  Mn  Mn7  1  0.16666667  0.83333333  0.33333333  1
  Mn  Mn8  1  0.74949700  0.00000000  0.50000000  1
  Mn  Mn9  1  0.25050300  0.00000000  0.50000000  1
  Mn  Mn10  1  0.66666667  0.83333333  0.33333333  1
  Mn  Mn11  1  0.74978700  0.25021300  0.49900500  1
  Mn  Mn12  1  0.00000000  0.25050300  0.50000000  1
  Mn  Mn13  1  0.50042600  0.25021300  0.49900500  1
  Mn  Mn14  1  0.25050300  0.25050300  0.50000000  1
  Mn  Mn15  1  0.41645367  0.83290733  0.83233833  1
  Mn  Mn16  1  0.83333333  0.66666667  0.66666667  1
  Mn  Mn17  1  0.91687967  0.83375933  0.83432833  1
  Mn  Mn18  1  0.66666667  0.08283033  0.83333333  1
  Mn  Mn19  1  0.41616367  0.08283033  0.83333333  1
  Mn  Mn20  1  0.91687967  0.08312033  0.83432833  1
  Mn  Mn21  1  0.16624067  0.08312033  0.83432833  1
  Mn  Mn22  1  0.83333333  0.16666667  0.66666667  1
  Mn  Mn23  1  0.41616367  0.33333333  0.83333333  1
  Mn  Mn24  1  0.91716967  0.33333333  0.83333333  1
  Mn  Mn25  1  0.33333333  0.16666667  0.66666667  1
  Mn  Mn26  1  0.41645367  0.58354633  0.83233833  1
  Mn  Mn27  1  0.66666667  0.58383633  0.83333333  1
  Mn  Mn28  1  0.16709267  0.58354633  0.83233833  1
  Mn  Mn29  1  0.91716967  0.58383633  0.83333333  1
  Mn  Mn30  1  0.08312033  0.16624067  0.16567167  1
  Mn  Mn31  1  0.50000000  0.00000000  0.00000000  1
  Mn  Mn32  1  0.58354633  0.16709267  0.16766167  1
  Mn  Mn33  1  0.33333333  0.41616367  0.16666667  1
  Mn  Mn34  1  0.08283033  0.41616367  0.16666667  1
  Mn  Mn35  1  0.58354633  0.41645367  0.16766167  1
  Mn  Mn36  1  0.83290733  0.41645367  0.16766167  1
  Mn  Mn37  1  0.50000000  0.50000000  0.00000000  1
  Mn  Mn38  1  0.08283033  0.66666667  0.16666667  1
  Mn  Mn39  1  0.58383633  0.66666667  0.16666667  1
  Mn  Mn40  1  0.00000000  0.50000000  0.00000000  1
  Mn  Mn41  1  0.08312033  0.91687967  0.16567167  1
  Mn  Mn42  1  0.33333333  0.91716967  0.16666667  1
  Mn  Mn43  1  0.83375933  0.91687967  0.16567167  1
  Mn  Mn44  1  0.58383633  0.91716967  0.16666667  1
  Ni  Ni45  1  0.00000000  0.00000000  0.00000000  1
  Ni  Ni46  1  0.66666667  0.33333333  0.33333333  1
  Ni  Ni47  1  0.33333333  0.66666667  0.66666667  1
  O  O48  1  0.14496667  0.07248333  0.08636533  1
  O  O49  1  0.92751667  0.07248333  0.08636533  1
  O  O50  1  0.31431800  0.40753100  0.42178100  1
  O  O51  1  0.09321300  0.40753100  0.42178100  1
  O  O52  1  0.68568200  0.59246900  0.57821900  1
  O  O53  1  0.90678700  0.59246900  0.57821900  1
  O  O54  1  0.85503333  0.92751667  0.91363467  1
  O  O55  1  0.07248333  0.92751667  0.91363467  1
  O  O56  1  0.83333133  0.66666267  0.43090467  1
  O  O57  1  0.90668267  0.81336533  0.57841133  1
  O  O58  1  0.00000000  0.00000000  0.76483000  1
  O  O59  1  0.07248333  0.14496667  0.91363467  1
  O  O60  1  0.16666867  0.83333133  0.56909533  1
  O  O61  1  0.09321300  0.68568200  0.42178100  1
  O  O62  1  0.66666267  0.83333133  0.56909533  1
  O  O63  1  0.59246900  0.68568200  0.42178100  1
  O  O64  1  0.09331733  0.90668267  0.42158867  1
  O  O65  1  0.31431800  0.90678700  0.42178100  1
  O  O66  1  0.59246900  0.90678700  0.42178100  1
  O  O67  1  0.81336533  0.90668267  0.42158867  1
  O  O68  1  0.90668267  0.09331733  0.57841133  1
  O  O69  1  0.68568200  0.09321300  0.57821900  1
  O  O70  1  0.40753100  0.09321300  0.57821900  1
  O  O71  1  0.18663467  0.09331733  0.57841133  1
  O  O72  1  0.90678700  0.31431800  0.57821900  1
  O  O73  1  0.83333133  0.16666867  0.43090467  1
  O  O74  1  0.40753100  0.31431800  0.57821900  1
  O  O75  1  0.33333733  0.16666867  0.43090467  1
  O  O76  1  0.92751667  0.85503333  0.08636533  1
  O  O77  1  0.00000000  0.00000000  0.23517000  1
  O  O78  1  0.09331733  0.18663467  0.42158867  1
  O  O79  1  0.16666867  0.33333733  0.56909533  1
  O  O80  1  0.81163333  0.40581667  0.41969867  1
  O  O81  1  0.59418333  0.40581667  0.41969867  1
  O  O82  1  0.98098467  0.74086433  0.75511433  1
  O  O83  1  0.75987967  0.74086433  0.75511433  1
  O  O84  1  0.35234867  0.92580233  0.91155233  1
  O  O85  1  0.57345367  0.92580233  0.91155233  1
  O  O86  1  0.52170000  0.26085000  0.24696800  1
  O  O87  1  0.73915000  0.26085000  0.24696800  1
  O  O88  1  0.49999800  0.99999600  0.76423800  1
  O  O89  1  0.57334933  0.14669867  0.91174467  1
  O  O90  1  0.66666667  0.33333333  0.09816333  1
  O  O91  1  0.73915000  0.47830000  0.24696800  1
  O  O92  1  0.83333533  0.16666467  0.90242867  1
  O  O93  1  0.75987967  0.01901533  0.75511433  1
  O  O94  1  0.33332933  0.16666467  0.90242867  1
  O  O95  1  0.25913567  0.01901533  0.75511433  1
  O  O96  1  0.75998400  0.24001600  0.75492200  1
  O  O97  1  0.98098467  0.24012033  0.75511433  1
  O  O98  1  0.25913567  0.24012033  0.75511433  1
  O  O99  1  0.48003200  0.24001600  0.75492200  1
  O  O100  1  0.57334933  0.42665067  0.91174467  1
  O  O101  1  0.35234867  0.42654633  0.91155233  1
  O  O102  1  0.07419767  0.42654633  0.91155233  1
  O  O103  1  0.85330133  0.42665067  0.91174467  1
  O  O104  1  0.57345367  0.64765133  0.91155233  1
  O  O105  1  0.49999800  0.50000200  0.76423800  1
  O  O106  1  0.07419767  0.64765133  0.91155233  1
  O  O107  1  0.00000400  0.50000200  0.76423800  1
  O  O108  1  0.59418333  0.18836667  0.41969867  1
  O  O109  1  0.66666667  0.33333333  0.56850333  1
  O  O110  1  0.75998400  0.51996800  0.75492200  1
  O  O111  1  0.83333533  0.66667067  0.90242867  1
  O  O112  1  0.47830000  0.73915000  0.75303200  1
  O  O113  1  0.26085000  0.73915000  0.75303200  1
  O  O114  1  0.64765133  0.07419767  0.08844767  1
  O  O115  1  0.42654633  0.07419767  0.08844767  1
  O  O116  1  0.01901533  0.25913567  0.24488567  1
  O  O117  1  0.24012033  0.25913567  0.24488567  1
  O  O118  1  0.18836667  0.59418333  0.58030133  1
  O  O119  1  0.40581667  0.59418333  0.58030133  1
  O  O120  1  0.16666467  0.33332933  0.09757133  1
  O  O121  1  0.24001600  0.48003200  0.24507800  1
  O  O122  1  0.33333333  0.66666667  0.43149667  1
  O  O123  1  0.40581667  0.81163333  0.58030133  1
  O  O124  1  0.50000200  0.49999800  0.23576200  1
  O  O125  1  0.42654633  0.35234867  0.08844767  1
  O  O126  1  0.99999600  0.49999800  0.23576200  1
  O  O127  1  0.92580233  0.35234867  0.08844767  1
  O  O128  1  0.42665067  0.57334933  0.08825533  1
  O  O129  1  0.64765133  0.57345367  0.08844767  1
  O  O130  1  0.92580233  0.57345367  0.08844767  1
  O  O131  1  0.14669867  0.57334933  0.08825533  1
  O  O132  1  0.24001600  0.75998400  0.24507800  1
  O  O133  1  0.01901533  0.75987967  0.24488567  1
  O  O134  1  0.74086433  0.75987967  0.24488567  1
  O  O135  1  0.51996800  0.75998400  0.24507800  1
  O  O136  1  0.24012033  0.98098467  0.24488567  1
  O  O137  1  0.16666467  0.83333533  0.09757133  1
  O  O138  1  0.74086433  0.98098467  0.24488567  1
  O  O139  1  0.66667067  0.83333533  0.09757133  1
  O  O140  1  0.26085000  0.52170000  0.75303200  1
  O  O141  1  0.33333333  0.66666667  0.90183667  1
  O  O142  1  0.42665067  0.85330133  0.08825533  1
  O  O143  1  0.50000200  0.00000400  0.23576200  1
