# generated using pymatgen
data_Ba2ScFeAsO3
_symmetry_space_group_name_H-M   'P 1'
_cell_length_a   4.22737221
_cell_length_b   4.22737221
_cell_length_c   17.14926900
_cell_angle_alpha   90.00000000
_cell_angle_beta   90.00000000
_cell_angle_gamma   90.00000000
_symmetry_Int_Tables_number   1
_chemical_formula_structural   Ba2ScFeAsO3
_chemical_formula_sum   'Ba4 Sc2 Fe2 As2 O6'
_cell_volume   306.46902680
_cell_formula_units_Z   2
loop_
 _symmetry_equiv_pos_site_id
 _symmetry_equiv_pos_as_xyz
  1  'x, y, z'
loop_
 _atom_site_type_symbol
 _atom_site_label
 _atom_site_symmetry_multiplicity
 _atom_site_fract_x
 _atom_site_fract_y
 _atom_site_fract_z
 _atom_site_occupancy
  Ba  Ba0  1  0.50000000  0.00000000  0.19197050  1
  Ba  Ba1  1  0.00000000  0.50000000  0.80802950  1
  Ba  Ba2  1  0.50000000  0.00000000  0.41497200  1
  Ba  Ba3  1  0.00000000  0.50000000  0.58502800  1
  Sc  Sc4  1  0.00000000  0.50000000  0.31348950  1
  Sc  Sc5  1  0.50000000  0.00000000  0.68651050  1
  Fe  Fe6  1  0.50000000  0.50000000  0.00000000  1
  Fe  Fe7  1  0.00000000  0.00000000  0.00000000  1
  As  As8  1  0.00000000  0.50000000  0.08865850  1
  As  As9  1  0.50000000  0.00000000  0.91134150  1
  O  O10  1  0.00000000  0.50000000  0.42881650  1
  O  O11  1  0.50000000  0.00000000  0.57118350  1
  O  O12  1  0.50000000  0.50000000  0.29461700  1
  O  O13  1  0.00000000  0.00000000  0.29461700  1
  O  O14  1  0.50000000  0.50000000  0.70538300  1
  O  O15  1  0.00000000  0.00000000  0.70538300  1
