# generated using pymatgen
data_V4(OF3)3
_symmetry_space_group_name_H-M   'P 1'
_cell_length_a   9.41869600
_cell_length_b   5.25177600
_cell_length_c   9.07536502
_cell_angle_alpha   90.00000000
_cell_angle_beta   108.21107628
_cell_angle_gamma   90.00000000
_symmetry_Int_Tables_number   1
_chemical_formula_structural   V4(OF3)3
_chemical_formula_sum   'V8 O6 F18'
_cell_volume   426.42660401
_cell_formula_units_Z   2
loop_
 _symmetry_equiv_pos_site_id
 _symmetry_equiv_pos_as_xyz
  1  'x, y, z'
loop_
 _atom_site_type_symbol
 _atom_site_label
 _atom_site_symmetry_multiplicity
 _atom_site_fract_x
 _atom_site_fract_y
 _atom_site_fract_z
 _atom_site_occupancy
  V  V0  1  0.61412650  0.86397850  0.37947400  1
  V  V1  1  0.88587350  0.36397850  0.62052600  1
  V  V2  1  0.61903700  0.40268600  0.87033200  1
  V  V3  1  0.88096300  0.90268600  0.12966800  1
  V  V4  1  0.11412650  0.36397850  0.37947400  1
  V  V5  1  0.38587350  0.86397850  0.62052600  1
  V  V6  1  0.11903700  0.90268600  0.87033200  1
  V  V7  1  0.38096300  0.40268600  0.12966800  1
  O  O8  1  0.00000000  0.29472600  0.50000000  1
  O  O9  1  0.99170900  0.15199800  0.20787200  1
  O  O10  1  0.50829100  0.65199800  0.79212800  1
  O  O11  1  0.50000000  0.79472600  0.50000000  1
  O  O12  1  0.49170900  0.65199800  0.20787200  1
  O  O13  1  0.00829100  0.15199800  0.79212800  1
  F  F14  1  0.50345450  0.16936750  0.70588800  1
  F  F15  1  0.99654550  0.66936750  0.29411200  1
  F  F16  1  0.74110950  0.96182150  0.24929100  1
  F  F17  1  0.74944100  0.57731600  0.45362500  1
  F  F18  1  0.75348800  0.58523900  0.04837600  1
  F  F19  1  0.75889050  0.46182150  0.75070900  1
  F  F20  1  0.00000000  0.78046100  0.00000000  1
  F  F21  1  0.74651200  0.08523900  0.95162400  1
  F  F22  1  0.75055900  0.07731600  0.54637500  1
  F  F23  1  0.00345450  0.66936750  0.70588800  1
  F  F24  1  0.49654550  0.16936750  0.29411200  1
  F  F25  1  0.24110950  0.46182150  0.24929100  1
  F  F26  1  0.24944100  0.07731600  0.45362500  1
  F  F27  1  0.25348800  0.08523900  0.04837600  1
  F  F28  1  0.25889050  0.96182150  0.75070900  1
  F  F29  1  0.50000000  0.28046100  0.00000000  1
  F  F30  1  0.24651200  0.58523900  0.95162400  1
  F  F31  1  0.25055900  0.57731600  0.54637500  1
