# generated using pymatgen
data_V2O3F
_symmetry_space_group_name_H-M   'P 1'
_cell_length_a   18.85052000
_cell_length_b   6.00446400
_cell_length_c   4.70433063
_cell_angle_alpha   90.00000000
_cell_angle_beta   93.23158436
_cell_angle_gamma   90.00000000
_symmetry_Int_Tables_number   1
_chemical_formula_structural   V2O3F
_chemical_formula_sum   'V16 O24 F8'
_cell_volume   531.62362309
_cell_formula_units_Z   8
loop_
 _symmetry_equiv_pos_site_id
 _symmetry_equiv_pos_as_xyz
  1  'x, y, z'
loop_
 _atom_site_type_symbol
 _atom_site_label
 _atom_site_symmetry_multiplicity
 _atom_site_fract_x
 _atom_site_fract_y
 _atom_site_fract_z
 _atom_site_occupancy
  V  V0  1  0.73686500  0.00000000  0.55257100  1
  V  V1  1  0.00000000  0.00000000  0.50000000  1
  V  V2  1  0.76313500  0.50000000  0.44742900  1
  V  V3  1  0.00000000  0.50000000  0.50000000  1
  V  V4  1  0.87574650  0.75951850  0.98474000  1
  V  V5  1  0.62425350  0.25951850  0.01526000  1
  V  V6  1  0.62425350  0.74048150  0.01526000  1
  V  V7  1  0.87574650  0.24048150  0.98474000  1
  V  V8  1  0.23686500  0.50000000  0.55257100  1
  V  V9  1  0.50000000  0.50000000  0.50000000  1
  V  V10  1  0.26313500  0.00000000  0.44742900  1
  V  V11  1  0.50000000  0.00000000  0.50000000  1
  V  V12  1  0.37574650  0.25951850  0.98474000  1
  V  V13  1  0.12425350  0.75951850  0.01526000  1
  V  V14  1  0.12425350  0.24048150  0.01526000  1
  V  V15  1  0.37574650  0.74048150  0.98474000  1
  O  O16  1  0.82815300  0.50000000  0.18683300  1
  O  O17  1  0.57491100  0.50000000  0.20179500  1
  O  O18  1  0.95200150  0.24803250  0.30480800  1
  O  O19  1  0.70227450  0.74964850  0.31094500  1
  O  O20  1  0.70227450  0.25035150  0.31094500  1
  O  O21  1  0.95200150  0.75196750  0.30480800  1
  O  O22  1  0.54799850  0.74803250  0.69519200  1
  O  O23  1  0.79772550  0.75035150  0.68905500  1
  O  O24  1  0.54799850  0.25196750  0.69519200  1
  O  O25  1  0.79772550  0.24964850  0.68905500  1
  O  O26  1  0.67184700  0.00000000  0.81316700  1
  O  O27  1  0.92508900  0.00000000  0.79820500  1
  O  O28  1  0.32815300  0.00000000  0.18683300  1
  O  O29  1  0.07491100  0.00000000  0.20179500  1
  O  O30  1  0.45200150  0.74803250  0.30480800  1
  O  O31  1  0.20227450  0.24964850  0.31094500  1
  O  O32  1  0.20227450  0.75035150  0.31094500  1
  O  O33  1  0.45200150  0.25196750  0.30480800  1
  O  O34  1  0.04799850  0.24803250  0.69519200  1
  O  O35  1  0.29772550  0.25035150  0.68905500  1
  O  O36  1  0.04799850  0.75196750  0.69519200  1
  O  O37  1  0.29772550  0.74964850  0.68905500  1
  O  O38  1  0.17184700  0.50000000  0.81316700  1
  O  O39  1  0.42508900  0.50000000  0.79820500  1
  F  F40  1  0.82431000  0.00000000  0.19807600  1
  F  F41  1  0.57481700  0.00000000  0.21007200  1
  F  F42  1  0.92518300  0.50000000  0.78992800  1
  F  F43  1  0.67569000  0.50000000  0.80192400  1
  F  F44  1  0.32431000  0.50000000  0.19807600  1
  F  F45  1  0.07481700  0.50000000  0.21007200  1
  F  F46  1  0.42518300  0.00000000  0.78992800  1
  F  F47  1  0.17569000  0.00000000  0.80192400  1
