# generated using pymatgen
data_Ni5Te(PO4)6
_symmetry_space_group_name_H-M   'P 1'
_cell_length_a   8.65209847
_cell_length_b   8.65209847
_cell_length_c   20.64110791
_cell_angle_alpha   90.00000000
_cell_angle_beta   90.00000000
_cell_angle_gamma   120.00000000
_symmetry_Int_Tables_number   1
_chemical_formula_structural   Ni5Te(PO4)6
_chemical_formula_sum   'Ni15 Te3 P18 O72'
_cell_volume   1338.15537463
_cell_formula_units_Z   3
loop_
 _symmetry_equiv_pos_site_id
 _symmetry_equiv_pos_as_xyz
  1  'x, y, z'
loop_
 _atom_site_type_symbol
 _atom_site_label
 _atom_site_symmetry_multiplicity
 _atom_site_fract_x
 _atom_site_fract_y
 _atom_site_fract_z
 _atom_site_occupancy
  Ni  Ni0  1  0.33333333  0.66666667  0.65954067  1
  Ni  Ni1  1  0.33333333  0.66666667  0.30909367  1
  Ni  Ni2  1  0.33333333  0.66666667  0.16735167  1
  Ni  Ni3  1  0.33333333  0.66666667  0.52302067  1
  Ni  Ni4  1  0.33333333  0.66666667  0.02623967  1
  Ni  Ni5  1  0.00000000  0.00000000  0.99287400  1
  Ni  Ni6  1  0.00000000  0.00000000  0.64242700  1
  Ni  Ni7  1  0.00000000  0.00000000  0.50068500  1
  Ni  Ni8  1  0.00000000  0.00000000  0.85635400  1
  Ni  Ni9  1  0.00000000  0.00000000  0.35957300  1
  Ni  Ni10  1  0.66666667  0.33333333  0.32620733  1
  Ni  Ni11  1  0.66666667  0.33333333  0.97576033  1
  Ni  Ni12  1  0.66666667  0.33333333  0.83401833  1
  Ni  Ni13  1  0.66666667  0.33333333  0.18968733  1
  Ni  Ni14  1  0.66666667  0.33333333  0.69290633  1
  Te  Te15  1  0.33333333  0.66666667  0.80856667  1
  Te  Te16  1  0.00000000  0.00000000  0.14190000  1
  Te  Te17  1  0.66666667  0.33333333  0.47523333  1
  P  P18  1  0.00344100  0.30024800  0.25223100  1
  P  P19  1  0.69975200  0.70319300  0.25223100  1
  P  P20  1  0.29680700  0.99655900  0.25223100  1
  P  P21  1  0.37713833  0.34160767  0.08468767  1
  P  P22  1  0.96446933  0.62286167  0.08468767  1
  P  P23  1  0.65839233  0.03553067  0.08468767  1
  P  P24  1  0.67010767  0.63358133  0.58556433  1
  P  P25  1  0.36641867  0.03652633  0.58556433  1
  P  P26  1  0.96347367  0.32989233  0.58556433  1
  P  P27  1  0.04380500  0.67494100  0.41802100  1
  P  P28  1  0.63113600  0.95619500  0.41802100  1
  P  P29  1  0.32505900  0.36886400  0.41802100  1
  P  P30  1  0.33677433  0.96691467  0.91889767  1
  P  P31  1  0.03308533  0.36985967  0.91889767  1
  P  P32  1  0.63014033  0.66322567  0.91889767  1
  P  P33  1  0.71047167  0.00827433  0.75135433  1
  P  P34  1  0.29780267  0.28952833  0.75135433  1
  P  P35  1  0.99172567  0.70219733  0.75135433  1
  O  O36  1  0.13151300  0.47777400  0.97702000  1
  O  O37  1  0.52222600  0.65373900  0.97702000  1
  O  O38  1  0.34626100  0.86848700  0.97702000  1
  O  O39  1  0.83244300  0.31356300  0.25775900  1
  O  O40  1  0.99914667  0.19715133  0.18564033  1
  O  O41  1  0.16675367  0.48432633  0.23922533  1
  O  O42  1  0.68643700  0.51888000  0.25775900  1
  O  O43  1  0.51567367  0.68242733  0.23922533  1
  O  O44  1  0.46174667  0.32947033  0.14679833  1
  O  O45  1  0.31757267  0.83324633  0.23922533  1
  O  O46  1  0.17631467  0.16048433  0.07590333  1
  O  O47  1  0.86772367  0.53825333  0.14679833  1
  O  O48  1  0.80284867  0.80199533  0.18564033  1
  O  O49  1  0.48112000  0.16755700  0.25775900  1
  O  O50  1  0.33924667  0.49622933  0.09369333  1
  O  O51  1  0.19800467  0.00085333  0.18564033  1
  O  O52  1  0.15698267  0.66075333  0.09369333  1
  O  O53  1  0.98416967  0.82368533  0.07590333  1
  O  O54  1  0.50377067  0.84301733  0.09369333  1
  O  O55  1  0.67052967  0.13227633  0.14679833  1
  O  O56  1  0.83951567  0.01583033  0.07590333  1
  O  O57  1  0.33108000  0.46127700  0.35577100  1
  O  O58  1  0.13019700  0.66892000  0.35577100  1
  O  O59  1  0.53872300  0.86980300  0.35577100  1
  O  O60  1  0.79817967  0.81110733  0.31035333  1
  O  O61  1  0.18889267  0.98707233  0.31035333  1
  O  O62  1  0.01292767  0.20182033  0.31035333  1
  O  O63  1  0.49910967  0.64689633  0.59109233  1
  O  O64  1  0.66581333  0.53048467  0.51897367  1
  O  O65  1  0.83342033  0.81765967  0.57255867  1
  O  O66  1  0.35310367  0.85221333  0.59109233  1
  O  O67  1  0.18234033  0.01576067  0.57255867  1
  O  O68  1  0.12841333  0.66280367  0.48013167  1
  O  O69  1  0.98423933  0.16657967  0.57255867  1
  O  O70  1  0.84298133  0.49381767  0.40923667  1
  O  O71  1  0.53439033  0.87158667  0.48013167  1
  O  O72  1  0.46951533  0.13532867  0.51897367  1
  O  O73  1  0.14778667  0.50089033  0.59109233  1
  O  O74  1  0.00591333  0.82956267  0.42702667  1
  O  O75  1  0.86467133  0.33418667  0.51897367  1
  O  O76  1  0.82364933  0.99408667  0.42702667  1
  O  O77  1  0.65083633  0.15701867  0.40923667  1
  O  O78  1  0.17043733  0.17635067  0.42702667  1
  O  O79  1  0.33719633  0.46560967  0.48013167  1
  O  O80  1  0.50618233  0.34916367  0.40923667  1
  O  O81  1  0.99774667  0.79461033  0.68910433  1
  O  O82  1  0.79686367  0.00225333  0.68910433  1
  O  O83  1  0.20538967  0.20313633  0.68910433  1
  O  O84  1  0.46484633  0.14444067  0.64368667  1
  O  O85  1  0.85555933  0.32040567  0.64368667  1
  O  O86  1  0.67959433  0.53515367  0.64368667  1
  O  O87  1  0.16577633  0.98022967  0.92442567  1
  O  O88  1  0.33248000  0.86381800  0.85230700  1
  O  O89  1  0.50008700  0.15099300  0.90589200  1
  O  O90  1  0.01977033  0.18554667  0.92442567  1
  O  O91  1  0.84900700  0.34909400  0.90589200  1
  O  O92  1  0.79508000  0.99613700  0.81346500  1
  O  O93  1  0.65090600  0.49991300  0.90589200  1
  O  O94  1  0.50964800  0.82715100  0.74257000  1
  O  O95  1  0.20105700  0.20492000  0.81346500  1
  O  O96  1  0.13618200  0.46866200  0.85230700  1
  O  O97  1  0.81445333  0.83422367  0.92442567  1
  O  O98  1  0.67258000  0.16289600  0.76036000  1
  O  O99  1  0.53133800  0.66752000  0.85230700  1
  O  O100  1  0.49031600  0.32742000  0.76036000  1
  O  O101  1  0.31750300  0.49035200  0.74257000  1
  O  O102  1  0.83710400  0.50968400  0.76036000  1
  O  O103  1  0.00386300  0.79894300  0.81346500  1
  O  O104  1  0.17284900  0.68249700  0.74257000  1
  O  O105  1  0.66441333  0.12794367  0.02243767  1
  O  O106  1  0.46353033  0.33558667  0.02243767  1
  O  O107  1  0.87205633  0.53646967  0.02243767  1
