# generated using pymatgen
data_LiVP2(HO4)2
_symmetry_space_group_name_H-M   'P 1'
_cell_length_a   10.21174400
_cell_length_b   16.75132200
_cell_length_c   8.63062651
_cell_angle_alpha   90.00000000
_cell_angle_beta   123.81109183
_cell_angle_gamma   90.00000000
_symmetry_Int_Tables_number   1
_chemical_formula_structural   LiVP2(HO4)2
_chemical_formula_sum   'Li8 V8 P16 H16 O64'
_cell_volume   1226.67055594
_cell_formula_units_Z   8
loop_
 _symmetry_equiv_pos_site_id
 _symmetry_equiv_pos_as_xyz
  1  'x, y, z'
loop_
 _atom_site_type_symbol
 _atom_site_label
 _atom_site_symmetry_multiplicity
 _atom_site_fract_x
 _atom_site_fract_y
 _atom_site_fract_z
 _atom_site_occupancy
  Li  Li0  1  0.45752350  0.10254950  0.96737000  1
  Li  Li1  1  0.95752350  0.39745050  0.46737000  1
  Li  Li2  1  0.52278100  0.35507100  0.49143700  1
  Li  Li3  1  0.02278100  0.14492900  0.99143700  1
  Li  Li4  1  0.95752350  0.60254950  0.96737000  1
  Li  Li5  1  0.45752350  0.89745050  0.46737000  1
  Li  Li6  1  0.02278100  0.85507100  0.49143700  1
  Li  Li7  1  0.52278100  0.64492900  0.99143700  1
  V  V8  1  0.03494500  0.16160300  0.62813200  1
  V  V9  1  0.60060700  0.18190700  0.72223100  1
  V  V10  1  0.53494500  0.33839700  0.12813200  1
  V  V11  1  0.10060700  0.31809300  0.22223100  1
  V  V12  1  0.53494500  0.66160300  0.62813200  1
  V  V13  1  0.10060700  0.68190700  0.72223100  1
  V  V14  1  0.03494500  0.83839700  0.12813200  1
  V  V15  1  0.60060700  0.81809300  0.22223100  1
  P  P16  1  0.65539900  0.48373600  0.83274200  1
  P  P17  1  0.30118650  0.27592250  0.68382700  1
  P  P18  1  0.15539900  0.01626400  0.33274200  1
  P  P19  1  0.88700750  0.29860150  0.75379100  1
  P  P20  1  0.80118650  0.22407750  0.18382700  1
  P  P21  1  0.38700750  0.20139850  0.25379100  1
  P  P22  1  0.67688000  0.02865500  0.81737700  1
  P  P23  1  0.17688000  0.47134500  0.31737700  1
  P  P24  1  0.15539900  0.98373600  0.83274200  1
  P  P25  1  0.80118650  0.77592250  0.68382700  1
  P  P26  1  0.65539900  0.51626400  0.33274200  1
  P  P27  1  0.38700750  0.79860150  0.75379100  1
  P  P28  1  0.30118650  0.72407750  0.18382700  1
  P  P29  1  0.88700750  0.70139850  0.25379100  1
  P  P30  1  0.17688000  0.52865500  0.81737700  1
  P  P31  1  0.67688000  0.97134500  0.31737700  1
  H  H32  1  0.88339200  0.43129900  0.90079400  1
  H  H33  1  0.28934950  0.04539950  0.62653000  1
  H  H34  1  0.38339200  0.06870100  0.40079400  1
  H  H35  1  0.78934950  0.45460050  0.12653000  1
  H  H36  1  0.22683400  0.41186000  0.75537900  1
  H  H37  1  0.38772500  0.47486200  0.58988000  1
  H  H38  1  0.72683400  0.08814000  0.25537900  1
  H  H39  1  0.88772500  0.02513800  0.08988000  1
  H  H40  1  0.38339200  0.93129900  0.90079400  1
  H  H41  1  0.78934950  0.54539950  0.62653000  1
  H  H42  1  0.88339200  0.56870100  0.40079400  1
  H  H43  1  0.28934950  0.95460050  0.12653000  1
  H  H44  1  0.72683400  0.91186000  0.75537900  1
  H  H45  1  0.88772500  0.97486200  0.58988000  1
  H  H46  1  0.22683400  0.58814000  0.25537900  1
  H  H47  1  0.38772500  0.52513800  0.08988000  1
  O  O48  1  0.09810700  0.07052800  0.80595700  1
  O  O49  1  0.67890650  0.44812650  0.01777200  1
  O  O50  1  0.53852700  0.43122600  0.67327200  1
  O  O51  1  0.72228600  0.27515100  0.70774900  1
  O  O52  1  0.82581250  0.48499350  0.87025700  1
  O  O53  1  0.59810700  0.42947200  0.30595700  1
  O  O54  1  0.17890650  0.05187350  0.51777200  1
  O  O55  1  0.35796900  0.33329200  0.85689300  1
  O  O56  1  0.03852700  0.06877400  0.17327200  1
  O  O57  1  0.24825550  0.19434250  0.72255600  1
  O  O58  1  0.97782150  0.34361250  0.94887500  1
  O  O59  1  0.97844450  0.21746050  0.77847700  1
  O  O60  1  0.88118250  0.35185750  0.60975700  1
  O  O61  1  0.22228600  0.22484900  0.20774900  1
  O  O62  1  0.43764550  0.26225650  0.66253100  1
  O  O63  1  0.32581250  0.01500650  0.37025700  1
  O  O64  1  0.51861450  0.06522250  0.76279600  1
  O  O65  1  0.85796900  0.16670800  0.35689300  1
  O  O66  1  0.74825550  0.30565750  0.22255600  1
  O  O67  1  0.47782150  0.15638750  0.44887500  1
  O  O68  1  0.28520450  0.49153050  0.01543300  1
  O  O69  1  0.47844450  0.28253950  0.27847700  1
  O  O70  1  0.14360750  0.45413750  0.68798200  1
  O  O71  1  0.38118250  0.14814250  0.10975700  1
  O  O72  1  0.93764550  0.23774350  0.16253100  1
  O  O73  1  0.15992150  0.31317450  0.50574800  1
  O  O74  1  0.01861450  0.43477750  0.26279600  1
  O  O75  1  0.76715600  0.09794900  0.79734900  1
  O  O76  1  0.78520450  0.00846950  0.51543300  1
  O  O77  1  0.64360750  0.04586250  0.18798200  1
  O  O78  1  0.65992150  0.18682550  0.00574800  1
  O  O79  1  0.26715600  0.40205100  0.29734900  1
  O  O80  1  0.59810700  0.57052800  0.80595700  1
  O  O81  1  0.17890650  0.94812650  0.01777200  1
  O  O82  1  0.03852700  0.93122600  0.67327200  1
  O  O83  1  0.22228600  0.77515100  0.70774900  1
  O  O84  1  0.32581250  0.98499350  0.87025700  1
  O  O85  1  0.09810700  0.92947200  0.30595700  1
  O  O86  1  0.67890650  0.55187350  0.51777200  1
  O  O87  1  0.85796900  0.83329200  0.85689300  1
  O  O88  1  0.53852700  0.56877400  0.17327200  1
  O  O89  1  0.74825550  0.69434250  0.72255600  1
  O  O90  1  0.47782150  0.84361250  0.94887500  1
  O  O91  1  0.47844450  0.71746050  0.77847700  1
  O  O92  1  0.38118250  0.85185750  0.60975700  1
  O  O93  1  0.72228600  0.72484900  0.20774900  1
  O  O94  1  0.93764550  0.76225650  0.66253100  1
  O  O95  1  0.82581250  0.51500650  0.37025700  1
  O  O96  1  0.01861450  0.56522250  0.76279600  1
  O  O97  1  0.35796900  0.66670800  0.35689300  1
  O  O98  1  0.24825550  0.80565750  0.22255600  1
  O  O99  1  0.97782150  0.65638750  0.44887500  1
  O  O100  1  0.78520450  0.99153050  0.01543300  1
  O  O101  1  0.97844450  0.78253950  0.27847700  1
  O  O102  1  0.64360750  0.95413750  0.68798200  1
  O  O103  1  0.88118250  0.64814250  0.10975700  1
  O  O104  1  0.43764550  0.73774350  0.16253100  1
  O  O105  1  0.65992150  0.81317450  0.50574800  1
  O  O106  1  0.51861450  0.93477750  0.26279600  1
  O  O107  1  0.26715600  0.59794900  0.79734900  1
  O  O108  1  0.28520450  0.50846950  0.51543300  1
  O  O109  1  0.14360750  0.54586250  0.18798200  1
  O  O110  1  0.15992150  0.68682550  0.00574800  1
  O  O111  1  0.76715600  0.90205100  0.29734900  1
