# generated using pymatgen
data_LiMn2(BO3)2
_symmetry_space_group_name_H-M   'P 1'
_cell_length_a   15.67507200
_cell_length_b   9.18735400
_cell_length_c   10.47190813
_cell_angle_alpha   90.00000000
_cell_angle_beta   90.43810854
_cell_angle_gamma   90.00000000
_symmetry_Int_Tables_number   1
_chemical_formula_structural   LiMn2(BO3)2
_chemical_formula_sum   'Li12 Mn24 B24 O72'
_cell_volume   1508.04090697
_cell_formula_units_Z   12
loop_
 _symmetry_equiv_pos_site_id
 _symmetry_equiv_pos_as_xyz
  1  'x, y, z'
loop_
 _atom_site_type_symbol
 _atom_site_label
 _atom_site_symmetry_multiplicity
 _atom_site_fract_x
 _atom_site_fract_y
 _atom_site_fract_z
 _atom_site_occupancy
  Li  Li0  1  0.29291700  0.99061500  0.32371000  1
  Li  Li1  1  0.29291700  0.00938500  0.82371000  1
  Li  Li2  1  0.04508000  0.00907400  0.08402100  1
  Li  Li3  1  0.04508000  0.99092600  0.58402100  1
  Li  Li4  1  0.61500400  0.97982800  0.33101900  1
  Li  Li5  1  0.61500400  0.02017200  0.83101900  1
  Li  Li6  1  0.79291700  0.49061500  0.32371000  1
  Li  Li7  1  0.79291700  0.50938500  0.82371000  1
  Li  Li8  1  0.54508000  0.50907400  0.08402100  1
  Li  Li9  1  0.54508000  0.49092600  0.58402100  1
  Li  Li10  1  0.11500400  0.47982800  0.33101900  1
  Li  Li11  1  0.11500400  0.52017200  0.83101900  1
  Mn  Mn12  1  0.45900650  0.79393650  0.87482900  1
  Mn  Mn13  1  0.37272050  0.70244550  0.12337500  1
  Mn  Mn14  1  0.45900650  0.20606350  0.37482900  1
  Mn  Mn15  1  0.22698200  0.82438000  0.62106100  1
  Mn  Mn16  1  0.37272050  0.29755450  0.62337500  1
  Mn  Mn17  1  0.22698200  0.17562000  0.12106100  1
  Mn  Mn18  1  0.78653600  0.85639400  0.87944600  1
  Mn  Mn19  1  0.78653600  0.14360600  0.37944600  1
  Mn  Mn20  1  0.60419000  0.64879700  0.36587400  1
  Mn  Mn21  1  0.55186050  0.84995450  0.60699700  1
  Mn  Mn22  1  0.55186050  0.15004550  0.10699700  1
  Mn  Mn23  1  0.60419000  0.35120300  0.86587400  1
  Mn  Mn24  1  0.95900650  0.29393650  0.87482900  1
  Mn  Mn25  1  0.87272050  0.20244550  0.12337500  1
  Mn  Mn26  1  0.95900650  0.70606350  0.37482900  1
  Mn  Mn27  1  0.72698200  0.32438000  0.62106100  1
  Mn  Mn28  1  0.87272050  0.79755450  0.62337500  1
  Mn  Mn29  1  0.72698200  0.67562000  0.12106100  1
  Mn  Mn30  1  0.28653600  0.35639400  0.87944600  1
  Mn  Mn31  1  0.28653600  0.64360600  0.37944600  1
  Mn  Mn32  1  0.10419000  0.14879700  0.36587400  1
  Mn  Mn33  1  0.05186050  0.34995450  0.60699700  1
  Mn  Mn34  1  0.05186050  0.65004550  0.10699700  1
  Mn  Mn35  1  0.10419000  0.85120300  0.86587400  1
  B  B36  1  0.39434250  0.64466150  0.63404000  1
  B  B37  1  0.44597450  0.85891650  0.35659300  1
  B  B38  1  0.44597450  0.14108350  0.85659300  1
  B  B39  1  0.39434250  0.35533850  0.13404000  1
  B  B40  1  0.21210850  0.83442250  0.12715400  1
  B  B41  1  0.77317450  0.81490150  0.36977600  1
  B  B42  1  0.21210850  0.16557750  0.62715400  1
  B  B43  1  0.61785300  0.68000200  0.89151500  1
  B  B44  1  0.77317450  0.18509850  0.86977600  1
  B  B45  1  0.55663350  0.81482450  0.12452800  1
  B  B46  1  0.61785300  0.31999800  0.39151500  1
  B  B47  1  0.55663350  0.18517550  0.62452800  1
  B  B48  1  0.89434250  0.14466150  0.63404000  1
  B  B49  1  0.94597450  0.35891650  0.35659300  1
  B  B50  1  0.94597450  0.64108350  0.85659300  1
  B  B51  1  0.89434250  0.85533850  0.13404000  1
  B  B52  1  0.71210850  0.33442250  0.12715400  1
  B  B53  1  0.27317450  0.31490150  0.36977600  1
  B  B54  1  0.71210850  0.66557750  0.62715400  1
  B  B55  1  0.11785300  0.18000200  0.89151500  1
  B  B56  1  0.27317450  0.68509850  0.86977600  1
  B  B57  1  0.05663350  0.31482450  0.12452800  1
  B  B58  1  0.11785300  0.81999800  0.39151500  1
  B  B59  1  0.05663350  0.68517550  0.62452800  1
  O  O60  1  0.47654700  0.80210100  0.06264400  1
  O  O61  1  0.39981600  0.73808900  0.30414500  1
  O  O62  1  0.44178350  0.75773150  0.69310100  1
  O  O63  1  0.35170250  0.70346150  0.93363800  1
  O  O64  1  0.41119100  0.99256300  0.36027000  1
  O  O65  1  0.47654700  0.19789900  0.56264400  1
  O  O66  1  0.41119100  0.00743700  0.86027000  1
  O  O67  1  0.44178350  0.24226850  0.19310100  1
  O  O68  1  0.39981600  0.26191100  0.80414500  1
  O  O69  1  0.23962900  0.81102100  0.81020600  1
  O  O70  1  0.92528350  0.99166050  0.12434500  1
  O  O71  1  0.25506400  0.96165900  0.14621200  1
  O  O72  1  0.20466600  0.82439000  0.43146500  1
  O  O73  1  0.92528350  0.00833950  0.62434500  1
  O  O74  1  0.35170250  0.29653850  0.43363800  1
  O  O75  1  0.25506400  0.03834100  0.64621200  1
  O  O76  1  0.81605050  0.81746350  0.07801100  1
  O  O77  1  0.23962900  0.18897900  0.31020600  1
  O  O78  1  0.75206650  0.79813850  0.66321100  1
  O  O79  1  0.20466600  0.17561000  0.93146500  1
  O  O80  1  0.81605050  0.18253650  0.57801100  1
  O  O81  1  0.06649850  0.93875050  0.39452800  1
  O  O82  1  0.73246150  0.94299850  0.36819900  1
  O  O83  1  0.63048800  0.66947000  0.57442500  1
  O  O84  1  0.59775600  0.68409400  0.15769400  1
  O  O85  1  0.06649850  0.06124950  0.89452800  1
  O  O86  1  0.73246150  0.05700150  0.86819900  1
  O  O87  1  0.75206650  0.20186150  0.16321100  1
  O  O88  1  0.58341050  0.81415550  0.85203700  1
  O  O89  1  0.58958950  0.94597150  0.15176300  1
  O  O90  1  0.52773500  0.83081300  0.40573500  1
  O  O91  1  0.58958950  0.05402850  0.65176300  1
  O  O92  1  0.63048800  0.33053000  0.07442500  1
  O  O93  1  0.58341050  0.18584450  0.35203700  1
  O  O94  1  0.59775600  0.31590600  0.65769400  1
  O  O95  1  0.52773500  0.16918700  0.90573500  1
  O  O96  1  0.97654700  0.30210100  0.06264400  1
  O  O97  1  0.89981600  0.23808900  0.30414500  1
  O  O98  1  0.94178350  0.25773150  0.69310100  1
  O  O99  1  0.85170250  0.20346150  0.93363800  1
  O  O100  1  0.91119100  0.49256300  0.36027000  1
  O  O101  1  0.97654700  0.69789900  0.56264400  1
  O  O102  1  0.91119100  0.50743700  0.86027000  1
  O  O103  1  0.94178350  0.74226850  0.19310100  1
  O  O104  1  0.89981600  0.76191100  0.80414500  1
  O  O105  1  0.73962900  0.31102100  0.81020600  1
  O  O106  1  0.42528350  0.49166050  0.12434500  1
  O  O107  1  0.75506400  0.46165900  0.14621200  1
  O  O108  1  0.70466600  0.32439000  0.43146500  1
  O  O109  1  0.42528350  0.50833950  0.62434500  1
  O  O110  1  0.85170250  0.79653850  0.43363800  1
  O  O111  1  0.75506400  0.53834100  0.64621200  1
  O  O112  1  0.31605050  0.31746350  0.07801100  1
  O  O113  1  0.73962900  0.68897900  0.31020600  1
  O  O114  1  0.25206650  0.29813850  0.66321100  1
  O  O115  1  0.70466600  0.67561000  0.93146500  1
  O  O116  1  0.31605050  0.68253650  0.57801100  1
  O  O117  1  0.56649850  0.43875050  0.39452800  1
  O  O118  1  0.23246150  0.44299850  0.36819900  1
  O  O119  1  0.13048800  0.16947000  0.57442500  1
  O  O120  1  0.09775600  0.18409400  0.15769400  1
  O  O121  1  0.56649850  0.56124950  0.89452800  1
  O  O122  1  0.23246150  0.55700150  0.86819900  1
  O  O123  1  0.25206650  0.70186150  0.16321100  1
  O  O124  1  0.08341050  0.31415550  0.85203700  1
  O  O125  1  0.08958950  0.44597150  0.15176300  1
  O  O126  1  0.02773500  0.33081300  0.40573500  1
  O  O127  1  0.08958950  0.55402850  0.65176300  1
  O  O128  1  0.13048800  0.83053000  0.07442500  1
  O  O129  1  0.08341050  0.68584450  0.35203700  1
  O  O130  1  0.09775600  0.81590600  0.65769400  1
  O  O131  1  0.02773500  0.66918700  0.90573500  1
