# generated using pymatgen
data_Co2SbO6
_symmetry_space_group_name_H-M   'P 1'
_cell_length_a   5.09087400
_cell_length_b   8.84418800
_cell_length_c   9.78761700
_cell_angle_alpha   90.00000000
_cell_angle_beta   90.00000000
_cell_angle_gamma   90.00000000
_symmetry_Int_Tables_number   1
_chemical_formula_structural   Co2SbO6
_chemical_formula_sum   'Co8 Sb4 O24'
_cell_volume   440.68399785
_cell_formula_units_Z   4
loop_
 _symmetry_equiv_pos_site_id
 _symmetry_equiv_pos_as_xyz
  1  'x, y, z'
loop_
 _atom_site_type_symbol
 _atom_site_label
 _atom_site_symmetry_multiplicity
 _atom_site_fract_x
 _atom_site_fract_y
 _atom_site_fract_z
 _atom_site_occupancy
  Co  Co0  1  0.00000000  0.16662700  0.50000000  1
  Co  Co1  1  0.50000000  0.16662700  0.00000000  1
  Co  Co2  1  0.00000000  0.33337300  0.00000000  1
  Co  Co3  1  0.50000000  0.33337300  0.50000000  1
  Co  Co4  1  0.50000000  0.66662700  0.50000000  1
  Co  Co5  1  0.00000000  0.66662700  0.00000000  1
  Co  Co6  1  0.50000000  0.83337300  0.00000000  1
  Co  Co7  1  0.00000000  0.83337300  0.50000000  1
  Sb  Sb8  1  0.50000000  0.00000000  0.50000000  1
  Sb  Sb9  1  0.00000000  0.00000000  0.00000000  1
  Sb  Sb10  1  0.00000000  0.50000000  0.50000000  1
  Sb  Sb11  1  0.50000000  0.50000000  0.00000000  1
  O  O12  1  0.34930900  0.00000000  0.09977200  1
  O  O13  1  0.15069100  0.00000000  0.59977200  1
  O  O14  1  0.84930900  0.00000000  0.40022800  1
  O  O15  1  0.32510100  0.17437100  0.40117200  1
  O  O16  1  0.65069100  0.00000000  0.90022800  1
  O  O17  1  0.17489900  0.17437100  0.90117200  1
  O  O18  1  0.82510100  0.17437100  0.09882800  1
  O  O19  1  0.67489900  0.17437100  0.59882800  1
  O  O20  1  0.17489900  0.32562900  0.59882800  1
  O  O21  1  0.82510100  0.32562900  0.40117200  1
  O  O22  1  0.67489900  0.32562900  0.90117200  1
  O  O23  1  0.32510100  0.32562900  0.09882800  1
  O  O24  1  0.84930900  0.50000000  0.09977200  1
  O  O25  1  0.65069100  0.50000000  0.59977200  1
  O  O26  1  0.34930900  0.50000000  0.40022800  1
  O  O27  1  0.82510100  0.67437100  0.40117200  1
  O  O28  1  0.15069100  0.50000000  0.90022800  1
  O  O29  1  0.67489900  0.67437100  0.90117200  1
  O  O30  1  0.32510100  0.67437100  0.09882800  1
  O  O31  1  0.17489900  0.67437100  0.59882800  1
  O  O32  1  0.67489900  0.82562900  0.59882800  1
  O  O33  1  0.32510100  0.82562900  0.40117200  1
  O  O34  1  0.17489900  0.82562900  0.90117200  1
  O  O35  1  0.82510100  0.82562900  0.09882800  1
