# generated using pymatgen
data_V2Sn(PO4)3
_symmetry_space_group_name_H-M   'P 1'
_cell_length_a   8.63647431
_cell_length_b   8.63647431
_cell_length_c   22.46418750
_cell_angle_alpha   90.00000000
_cell_angle_beta   90.00000000
_cell_angle_gamma   120.00000000
_symmetry_Int_Tables_number   1
_chemical_formula_structural   V2Sn(PO4)3
_chemical_formula_sum   'V12 Sn6 P18 O72'
_cell_volume   1451.08989668
_cell_formula_units_Z   6
loop_
 _symmetry_equiv_pos_site_id
 _symmetry_equiv_pos_as_xyz
  1  'x, y, z'
loop_
 _atom_site_type_symbol
 _atom_site_label
 _atom_site_symmetry_multiplicity
 _atom_site_fract_x
 _atom_site_fract_y
 _atom_site_fract_z
 _atom_site_occupancy
  V  V0  1  0.00000000  0.00000000  0.14766800  1
  V  V1  1  0.33333333  0.66666667  0.01899867  1
  V  V2  1  0.33333333  0.66666667  0.31433467  1
  V  V3  1  0.66666667  0.33333333  0.18566533  1
  V  V4  1  0.66666667  0.33333333  0.48100133  1
  V  V5  1  0.00000000  0.00000000  0.35233200  1
  V  V6  1  0.00000000  0.00000000  0.64766800  1
  V  V7  1  0.33333333  0.66666667  0.51899867  1
  V  V8  1  0.33333333  0.66666667  0.81433467  1
  V  V9  1  0.66666667  0.33333333  0.68566533  1
  V  V10  1  0.66666667  0.33333333  0.98100133  1
  V  V11  1  0.00000000  0.00000000  0.85233200  1
  Sn  Sn12  1  0.00000000  0.00000000  0.00000000  1
  Sn  Sn13  1  0.33333333  0.66666667  0.16666667  1
  Sn  Sn14  1  0.66666667  0.33333333  0.33333333  1
  Sn  Sn15  1  0.00000000  0.00000000  0.50000000  1
  Sn  Sn16  1  0.33333333  0.66666667  0.66666667  1
  Sn  Sn17  1  0.66666667  0.33333333  0.83333333  1
  P  P18  1  0.66666667  0.61974633  0.08333333  1
  P  P19  1  0.95307967  0.33333333  0.08333333  1
  P  P20  1  0.38025367  0.04692033  0.08333333  1
  P  P21  1  0.28641300  0.28641300  0.25000000  1
  P  P22  1  0.71358700  0.00000000  0.25000000  1
  P  P23  1  0.00000000  0.71358700  0.25000000  1
  P  P24  1  0.33333333  0.95307967  0.41666667  1
  P  P25  1  0.61974633  0.66666667  0.41666667  1
  P  P26  1  0.04692033  0.38025367  0.41666667  1
  P  P27  1  0.95307967  0.61974633  0.58333333  1
  P  P28  1  0.38025367  0.33333333  0.58333333  1
  P  P29  1  0.66666667  0.04692033  0.58333333  1
  P  P30  1  0.00000000  0.28641300  0.75000000  1
  P  P31  1  0.28641300  0.00000000  0.75000000  1
  P  P32  1  0.71358700  0.71358700  0.75000000  1
  P  P33  1  0.61974633  0.95307967  0.91666667  1
  P  P34  1  0.04692033  0.66666667  0.91666667  1
  P  P35  1  0.33333333  0.38025367  0.91666667  1
  O  O36  1  0.97915133  0.79954167  0.30724267  1
  O  O37  1  0.20045833  0.17960967  0.30724267  1
  O  O38  1  0.83522633  0.80920767  0.08804467  1
  O  O39  1  0.82039033  0.02084867  0.30724267  1
  O  O40  1  0.64581800  0.51294300  0.14057600  1
  O  O41  1  0.49810700  0.64064800  0.07862200  1
  O  O42  1  0.97398133  0.16477367  0.08804467  1
  O  O43  1  0.14254100  0.50189300  0.07862200  1
  O  O44  1  0.17960967  0.20045833  0.19275733  1
  O  O45  1  0.35935200  0.85745900  0.07862200  1
  O  O46  1  0.47587433  0.30731467  0.24528867  1
  O  O47  1  0.79954167  0.97915133  0.19275733  1
  O  O48  1  0.86712500  0.35418200  0.14057600  1
  O  O49  1  0.19079233  0.02601867  0.08804467  1
  O  O50  1  0.30731467  0.47587433  0.25471133  1
  O  O51  1  0.48705700  0.13287500  0.14057600  1
  O  O52  1  0.52412567  0.83144033  0.25471133  1
  O  O53  1  0.69268533  0.16855967  0.24528867  1
  O  O54  1  0.16855967  0.69268533  0.25471133  1
  O  O55  1  0.02084867  0.82039033  0.19275733  1
  O  O56  1  0.84627633  0.31248467  0.02609067  1
  O  O57  1  0.83144033  0.52412567  0.24528867  1
  O  O58  1  0.46620833  0.15372367  0.02609067  1
  O  O59  1  0.68751533  0.53379167  0.02609067  1
  O  O60  1  0.64581800  0.13287500  0.64057600  1
  O  O61  1  0.86712500  0.51294300  0.64057600  1
  O  O62  1  0.50189300  0.14254100  0.42137800  1
  O  O63  1  0.48705700  0.35418200  0.64057600  1
  O  O64  1  0.31248467  0.84627633  0.47390933  1
  O  O65  1  0.16477367  0.97398133  0.41195533  1
  O  O66  1  0.64064800  0.49810700  0.42137800  1
  O  O67  1  0.80920767  0.83522633  0.41195533  1
  O  O68  1  0.84627633  0.53379167  0.52609067  1
  O  O69  1  0.02601867  0.19079233  0.41195533  1
  O  O70  1  0.14254100  0.64064800  0.57862200  1
  O  O71  1  0.46620833  0.31248467  0.52609067  1
  O  O72  1  0.53379167  0.68751533  0.47390933  1
  O  O73  1  0.85745900  0.35935200  0.42137800  1
  O  O74  1  0.97398133  0.80920767  0.58804467  1
  O  O75  1  0.15372367  0.46620833  0.47390933  1
  O  O76  1  0.19079233  0.16477367  0.58804467  1
  O  O77  1  0.35935200  0.50189300  0.57862200  1
  O  O78  1  0.83522633  0.02601867  0.58804467  1
  O  O79  1  0.68751533  0.15372367  0.52609067  1
  O  O80  1  0.51294300  0.64581800  0.35942400  1
  O  O81  1  0.49810700  0.85745900  0.57862200  1
  O  O82  1  0.13287500  0.48705700  0.35942400  1
  O  O83  1  0.35418200  0.86712500  0.35942400  1
  O  O84  1  0.31248467  0.46620833  0.97390933  1
  O  O85  1  0.53379167  0.84627633  0.97390933  1
  O  O86  1  0.16855967  0.47587433  0.75471133  1
  O  O87  1  0.15372367  0.68751533  0.97390933  1
  O  O88  1  0.97915133  0.17960967  0.80724267  1
  O  O89  1  0.83144033  0.30731467  0.74528867  1
  O  O90  1  0.30731467  0.83144033  0.75471133  1
  O  O91  1  0.47587433  0.16855967  0.74528867  1
  O  O92  1  0.51294300  0.86712500  0.85942400  1
  O  O93  1  0.69268533  0.52412567  0.74528867  1
  O  O94  1  0.80920767  0.97398133  0.91195533  1
  O  O95  1  0.13287500  0.64581800  0.85942400  1
  O  O96  1  0.20045833  0.02084867  0.80724267  1
  O  O97  1  0.52412567  0.69268533  0.75471133  1
  O  O98  1  0.64064800  0.14254100  0.92137800  1
  O  O99  1  0.82039033  0.79954167  0.80724267  1
  O  O100  1  0.85745900  0.49810700  0.92137800  1
  O  O101  1  0.02601867  0.83522633  0.91195533  1
  O  O102  1  0.50189300  0.35935200  0.92137800  1
  O  O103  1  0.35418200  0.48705700  0.85942400  1
  O  O104  1  0.17960967  0.97915133  0.69275733  1
  O  O105  1  0.16477367  0.19079233  0.91195533  1
  O  O106  1  0.79954167  0.82039033  0.69275733  1
  O  O107  1  0.02084867  0.20045833  0.69275733  1
