# generated using pymatgen
data_Li4Mn3Co2Sb3O16
_symmetry_space_group_name_H-M   'P 1'
_cell_length_a   10.75340600
_cell_length_b   6.09679400
_cell_length_c   9.81489374
_cell_angle_alpha   90.00000000
_cell_angle_beta   90.79833426
_cell_angle_gamma   90.00000000
_symmetry_Int_Tables_number   1
_chemical_formula_structural   Li4Mn3Co2Sb3O16
_chemical_formula_sum   'Li8 Mn6 Co4 Sb6 O32'
_cell_volume   643.41474167
_cell_formula_units_Z   2
loop_
 _symmetry_equiv_pos_site_id
 _symmetry_equiv_pos_as_xyz
  1  'x, y, z'
loop_
 _atom_site_type_symbol
 _atom_site_label
 _atom_site_symmetry_multiplicity
 _atom_site_fract_x
 _atom_site_fract_y
 _atom_site_fract_z
 _atom_site_occupancy
  Li  Li0  1  0.66299300  0.00000000  0.87574600  1
  Li  Li1  1  0.98725900  0.00000000  0.99271500  1
  Li  Li2  1  0.99525800  0.00000000  0.50614400  1
  Li  Li3  1  0.82656700  0.50000000  0.39672500  1
  Li  Li4  1  0.16299300  0.50000000  0.87574600  1
  Li  Li5  1  0.48725900  0.50000000  0.99271500  1
  Li  Li6  1  0.49525800  0.50000000  0.50614400  1
  Li  Li7  1  0.32656700  0.00000000  0.39672500  1
  Mn  Mn8  1  0.83163200  0.00000000  0.21696100  1
  Mn  Mn9  1  0.91624000  0.74705100  0.71507400  1
  Mn  Mn10  1  0.91624000  0.25294900  0.71507400  1
  Mn  Mn11  1  0.33163200  0.50000000  0.21696100  1
  Mn  Mn12  1  0.41624000  0.24705100  0.71507400  1
  Mn  Mn13  1  0.41624000  0.75294900  0.71507400  1
  Co  Co14  1  0.67302700  0.00000000  0.51153000  1
  Co  Co15  1  0.84311100  0.50000000  0.98137300  1
  Co  Co16  1  0.17302700  0.50000000  0.51153000  1
  Co  Co17  1  0.34311100  0.00000000  0.98137300  1
  Sb  Sb18  1  0.58454050  0.24658450  0.21521100  1
  Sb  Sb19  1  0.58454050  0.75341550  0.21521100  1
  Sb  Sb20  1  0.67191400  0.50000000  0.71506300  1
  Sb  Sb21  1  0.08454050  0.74658450  0.21521100  1
  Sb  Sb22  1  0.08454050  0.25341550  0.21521100  1
  Sb  Sb23  1  0.17191400  0.00000000  0.71506300  1
  O  O24  1  0.58485350  0.26423450  0.60169200  1
  O  O25  1  0.51400100  0.00000000  0.33216100  1
  O  O26  1  0.65300900  0.00000000  0.09665600  1
  O  O27  1  0.51230300  0.50000000  0.32248200  1
  O  O28  1  0.51070800  0.50000000  0.81472200  1
  O  O29  1  0.58485350  0.73576550  0.60169200  1
  O  O30  1  0.73746900  0.22595000  0.32972700  1
  O  O31  1  0.73746900  0.77405000  0.32972700  1
  O  O32  1  0.65423800  0.50000000  0.10169500  1
  O  O33  1  0.84650500  0.00000000  0.61133800  1
  O  O34  1  0.75808500  0.72295100  0.83674300  1
  O  O35  1  0.75808500  0.27704900  0.83674300  1
  O  O36  1  0.82532700  0.50000000  0.59922600  1
  O  O37  1  0.92564000  0.76155700  0.10632200  1
  O  O38  1  0.97827700  0.50000000  0.82370700  1
  O  O39  1  0.92564000  0.23844300  0.10632200  1
  O  O40  1  0.08485350  0.76423450  0.60169200  1
  O  O41  1  0.01400100  0.50000000  0.33216100  1
  O  O42  1  0.15300900  0.50000000  0.09665600  1
  O  O43  1  0.01230300  0.00000000  0.32248200  1
  O  O44  1  0.01070800  0.00000000  0.81472200  1
  O  O45  1  0.08485350  0.23576550  0.60169200  1
  O  O46  1  0.23746900  0.72595000  0.32972700  1
  O  O47  1  0.23746900  0.27405000  0.32972700  1
  O  O48  1  0.15423800  0.00000000  0.10169500  1
  O  O49  1  0.34650500  0.50000000  0.61133800  1
  O  O50  1  0.25808500  0.22295100  0.83674300  1
  O  O51  1  0.25808500  0.77704900  0.83674300  1
  O  O52  1  0.32532700  0.00000000  0.59922600  1
  O  O53  1  0.42564000  0.26155700  0.10632200  1
  O  O54  1  0.47827700  0.00000000  0.82370700  1
  O  O55  1  0.42564000  0.73844300  0.10632200  1
