# generated using pymatgen
data_Na4Ni2C4SO16
_symmetry_space_group_name_H-M   'P 1'
_cell_length_a   13.83952200
_cell_length_b   13.92741400
_cell_length_c   14.16676200
_cell_angle_alpha   90.00000000
_cell_angle_beta   90.00000000
_cell_angle_gamma   90.00000000
_symmetry_Int_Tables_number   1
_chemical_formula_structural   Na4Ni2C4SO16
_chemical_formula_sum   'Na32 Ni16 C32 S8 O128'
_cell_volume   2730.62570184
_cell_formula_units_Z   8
loop_
 _symmetry_equiv_pos_site_id
 _symmetry_equiv_pos_as_xyz
  1  'x, y, z'
loop_
 _atom_site_type_symbol
 _atom_site_label
 _atom_site_symmetry_multiplicity
 _atom_site_fract_x
 _atom_site_fract_y
 _atom_site_fract_z
 _atom_site_occupancy
  Na  Na0  1  0.71115500  0.00000000  0.00000000  1
  Na  Na1  1  0.50000000  0.21003300  0.00000000  1
  Na  Na2  1  0.75000000  0.46003300  0.25000000  1
  Na  Na3  1  0.96115500  0.25000000  0.25000000  1
  Na  Na4  1  0.28884500  0.00000000  0.00000000  1
  Na  Na5  1  0.50000000  0.78996700  0.00000000  1
  Na  Na6  1  0.75000000  0.03996700  0.25000000  1
  Na  Na7  1  0.53884500  0.25000000  0.25000000  1
  Na  Na8  1  0.71115500  0.50000000  0.50000000  1
  Na  Na9  1  0.50000000  0.71003300  0.50000000  1
  Na  Na10  1  0.75000000  0.96003300  0.75000000  1
  Na  Na11  1  0.96115500  0.75000000  0.75000000  1
  Na  Na12  1  0.28884500  0.50000000  0.50000000  1
  Na  Na13  1  0.50000000  0.28996700  0.50000000  1
  Na  Na14  1  0.75000000  0.53996700  0.75000000  1
  Na  Na15  1  0.53884500  0.75000000  0.75000000  1
  Na  Na16  1  0.21115500  0.00000000  0.50000000  1
  Na  Na17  1  0.00000000  0.21003300  0.50000000  1
  Na  Na18  1  0.25000000  0.46003300  0.75000000  1
  Na  Na19  1  0.46115500  0.25000000  0.75000000  1
  Na  Na20  1  0.78884500  0.00000000  0.50000000  1
  Na  Na21  1  0.00000000  0.78996700  0.50000000  1
  Na  Na22  1  0.25000000  0.03996700  0.75000000  1
  Na  Na23  1  0.03884500  0.25000000  0.75000000  1
  Na  Na24  1  0.21115500  0.50000000  0.00000000  1
  Na  Na25  1  0.00000000  0.71003300  0.00000000  1
  Na  Na26  1  0.25000000  0.96003300  0.25000000  1
  Na  Na27  1  0.46115500  0.75000000  0.25000000  1
  Na  Na28  1  0.78884500  0.50000000  0.00000000  1
  Na  Na29  1  0.00000000  0.28996700  0.00000000  1
  Na  Na30  1  0.25000000  0.53996700  0.25000000  1
  Na  Na31  1  0.03884500  0.75000000  0.25000000  1
  Ni  Ni32  1  0.87500000  0.87500000  0.12500000  1
  Ni  Ni33  1  0.62500000  0.62500000  0.12500000  1
  Ni  Ni34  1  0.87500000  0.62500000  0.37500000  1
  Ni  Ni35  1  0.62500000  0.87500000  0.37500000  1
  Ni  Ni36  1  0.87500000  0.37500000  0.62500000  1
  Ni  Ni37  1  0.62500000  0.12500000  0.62500000  1
  Ni  Ni38  1  0.87500000  0.12500000  0.87500000  1
  Ni  Ni39  1  0.62500000  0.37500000  0.87500000  1
  Ni  Ni40  1  0.37500000  0.87500000  0.62500000  1
  Ni  Ni41  1  0.12500000  0.62500000  0.62500000  1
  Ni  Ni42  1  0.37500000  0.62500000  0.87500000  1
  Ni  Ni43  1  0.12500000  0.87500000  0.87500000  1
  Ni  Ni44  1  0.37500000  0.37500000  0.12500000  1
  Ni  Ni45  1  0.12500000  0.12500000  0.12500000  1
  Ni  Ni46  1  0.37500000  0.12500000  0.37500000  1
  Ni  Ni47  1  0.12500000  0.37500000  0.37500000  1
  C  C48  1  0.15983250  0.15837050  0.33616600  1
  C  C49  1  0.90983250  0.40837050  0.41383400  1
  C  C50  1  0.65983250  0.84162950  0.16383400  1
  C  C51  1  0.34016750  0.15837050  0.16383400  1
  C  C52  1  0.90983250  0.09162950  0.08616600  1
  C  C53  1  0.59016750  0.40837050  0.08616600  1
  C  C54  1  0.84016750  0.84162950  0.33616600  1
  C  C55  1  0.59016750  0.09162950  0.41383400  1
  C  C56  1  0.15983250  0.65837050  0.83616600  1
  C  C57  1  0.90983250  0.90837050  0.91383400  1
  C  C58  1  0.65983250  0.34162950  0.66383400  1
  C  C59  1  0.34016750  0.65837050  0.66383400  1
  C  C60  1  0.90983250  0.59162950  0.58616600  1
  C  C61  1  0.59016750  0.90837050  0.58616600  1
  C  C62  1  0.84016750  0.34162950  0.83616600  1
  C  C63  1  0.59016750  0.59162950  0.91383400  1
  C  C64  1  0.65983250  0.15837050  0.83616600  1
  C  C65  1  0.40983250  0.40837050  0.91383400  1
  C  C66  1  0.15983250  0.84162950  0.66383400  1
  C  C67  1  0.84016750  0.15837050  0.66383400  1
  C  C68  1  0.40983250  0.09162950  0.58616600  1
  C  C69  1  0.09016750  0.40837050  0.58616600  1
  C  C70  1  0.34016750  0.84162950  0.83616600  1
  C  C71  1  0.09016750  0.09162950  0.91383400  1
  C  C72  1  0.65983250  0.65837050  0.33616600  1
  C  C73  1  0.40983250  0.90837050  0.41383400  1
  C  C74  1  0.15983250  0.34162950  0.16383400  1
  C  C75  1  0.84016750  0.65837050  0.16383400  1
  C  C76  1  0.40983250  0.59162950  0.08616600  1
  C  C77  1  0.09016750  0.90837050  0.08616600  1
  C  C78  1  0.34016750  0.34162950  0.33616600  1
  C  C79  1  0.09016750  0.59162950  0.41383400  1
  S  S80  1  0.75000000  0.25000000  0.25000000  1
  S  S81  1  0.50000000  0.00000000  0.00000000  1
  S  S82  1  0.75000000  0.75000000  0.75000000  1
  S  S83  1  0.50000000  0.50000000  0.50000000  1
  S  S84  1  0.25000000  0.25000000  0.75000000  1
  S  S85  1  0.00000000  0.00000000  0.50000000  1
  S  S86  1  0.25000000  0.75000000  0.25000000  1
  S  S87  1  0.00000000  0.50000000  0.00000000  1
  O  O88  1  0.22799850  0.14397750  0.39704300  1
  O  O89  1  0.68700350  0.31205050  0.31002300  1
  O  O90  1  0.15246700  0.10225700  0.26473000  1
  O  O91  1  0.90246700  0.35225700  0.48527000  1
  O  O92  1  0.65246700  0.89774300  0.23527000  1
  O  O93  1  0.34791850  0.97676100  0.40012450  1
  O  O94  1  0.68700350  0.18794950  0.18997700  1
  O  O95  1  0.81299650  0.18794950  0.31002300  1
  O  O96  1  0.15208150  0.97676100  0.09987550  1
  O  O97  1  0.34753300  0.10225700  0.23527000  1
  O  O98  1  0.47799850  0.89397750  0.35295700  1
  O  O99  1  0.81299650  0.31205050  0.18997700  1
  O  O100  1  0.72799850  0.85602250  0.10295700  1
  O  O101  1  0.27200150  0.14397750  0.10295700  1
  O  O102  1  0.09791850  0.22676100  0.34987550  1
  O  O103  1  0.84791850  0.02323900  0.09987550  1
  O  O104  1  0.40208150  0.22676100  0.15012450  1
  O  O105  1  0.65208150  0.02323900  0.40012450  1
  O  O106  1  0.97799850  0.10602250  0.14704300  1
  O  O107  1  0.02200150  0.89397750  0.14704300  1
  O  O108  1  0.43700350  0.93794950  0.06002300  1
  O  O109  1  0.77200150  0.85602250  0.39704300  1
  O  O110  1  0.40246700  0.64774300  0.01473000  1
  O  O111  1  0.59791850  0.77323900  0.15012450  1
  O  O112  1  0.93700350  0.06205050  0.43997700  1
  O  O113  1  0.56299650  0.06205050  0.06002300  1
  O  O114  1  0.90208150  0.77323900  0.34987550  1
  O  O115  1  0.59753300  0.35225700  0.01473000  1
  O  O116  1  0.84753300  0.89774300  0.26473000  1
  O  O117  1  0.09753300  0.64774300  0.48527000  1
  O  O118  1  0.06299650  0.93794950  0.43997700  1
  O  O119  1  0.52200150  0.10602250  0.35295700  1
  O  O120  1  0.22799850  0.64397750  0.89704300  1
  O  O121  1  0.68700350  0.81205050  0.81002300  1
  O  O122  1  0.15246700  0.60225700  0.76473000  1
  O  O123  1  0.90246700  0.85225700  0.98527000  1
  O  O124  1  0.65246700  0.39774300  0.73527000  1
  O  O125  1  0.34791850  0.47676100  0.90012450  1
  O  O126  1  0.68700350  0.68794950  0.68997700  1
  O  O127  1  0.81299650  0.68794950  0.81002300  1
  O  O128  1  0.15208150  0.47676100  0.59987550  1
  O  O129  1  0.34753300  0.60225700  0.73527000  1
  O  O130  1  0.47799850  0.39397750  0.85295700  1
  O  O131  1  0.81299650  0.81205050  0.68997700  1
  O  O132  1  0.72799850  0.35602250  0.60295700  1
  O  O133  1  0.27200150  0.64397750  0.60295700  1
  O  O134  1  0.09791850  0.72676100  0.84987550  1
  O  O135  1  0.84791850  0.52323900  0.59987550  1
  O  O136  1  0.40208150  0.72676100  0.65012450  1
  O  O137  1  0.65208150  0.52323900  0.90012450  1
  O  O138  1  0.97799850  0.60602250  0.64704300  1
  O  O139  1  0.02200150  0.39397750  0.64704300  1
  O  O140  1  0.43700350  0.43794950  0.56002300  1
  O  O141  1  0.77200150  0.35602250  0.89704300  1
  O  O142  1  0.40246700  0.14774300  0.51473000  1
  O  O143  1  0.59791850  0.27323900  0.65012450  1
  O  O144  1  0.93700350  0.56205050  0.93997700  1
  O  O145  1  0.56299650  0.56205050  0.56002300  1
  O  O146  1  0.90208150  0.27323900  0.84987550  1
  O  O147  1  0.59753300  0.85225700  0.51473000  1
  O  O148  1  0.84753300  0.39774300  0.76473000  1
  O  O149  1  0.09753300  0.14774300  0.98527000  1
  O  O150  1  0.06299650  0.43794950  0.93997700  1
  O  O151  1  0.52200150  0.60602250  0.85295700  1
  O  O152  1  0.72799850  0.14397750  0.89704300  1
  O  O153  1  0.18700350  0.31205050  0.81002300  1
  O  O154  1  0.65246700  0.10225700  0.76473000  1
  O  O155  1  0.40246700  0.35225700  0.98527000  1
  O  O156  1  0.15246700  0.89774300  0.73527000  1
  O  O157  1  0.84791850  0.97676100  0.90012450  1
  O  O158  1  0.18700350  0.18794950  0.68997700  1
  O  O159  1  0.31299650  0.18794950  0.81002300  1
  O  O160  1  0.65208150  0.97676100  0.59987550  1
  O  O161  1  0.84753300  0.10225700  0.73527000  1
  O  O162  1  0.97799850  0.89397750  0.85295700  1
  O  O163  1  0.31299650  0.31205050  0.68997700  1
  O  O164  1  0.22799850  0.85602250  0.60295700  1
  O  O165  1  0.77200150  0.14397750  0.60295700  1
  O  O166  1  0.59791850  0.22676100  0.84987550  1
  O  O167  1  0.34791850  0.02323900  0.59987550  1
  O  O168  1  0.90208150  0.22676100  0.65012450  1
  O  O169  1  0.15208150  0.02323900  0.90012450  1
  O  O170  1  0.47799850  0.10602250  0.64704300  1
  O  O171  1  0.52200150  0.89397750  0.64704300  1
  O  O172  1  0.93700350  0.93794950  0.56002300  1
  O  O173  1  0.27200150  0.85602250  0.89704300  1
  O  O174  1  0.90246700  0.64774300  0.51473000  1
  O  O175  1  0.09791850  0.77323900  0.65012450  1
  O  O176  1  0.43700350  0.06205050  0.93997700  1
  O  O177  1  0.06299650  0.06205050  0.56002300  1
  O  O178  1  0.40208150  0.77323900  0.84987550  1
  O  O179  1  0.09753300  0.35225700  0.51473000  1
  O  O180  1  0.34753300  0.89774300  0.76473000  1
  O  O181  1  0.59753300  0.64774300  0.98527000  1
  O  O182  1  0.56299650  0.93794950  0.93997700  1
  O  O183  1  0.02200150  0.10602250  0.85295700  1
  O  O184  1  0.72799850  0.64397750  0.39704300  1
  O  O185  1  0.18700350  0.81205050  0.31002300  1
  O  O186  1  0.65246700  0.60225700  0.26473000  1
  O  O187  1  0.40246700  0.85225700  0.48527000  1
  O  O188  1  0.15246700  0.39774300  0.23527000  1
  O  O189  1  0.84791850  0.47676100  0.40012450  1
  O  O190  1  0.18700350  0.68794950  0.18997700  1
  O  O191  1  0.31299650  0.68794950  0.31002300  1
  O  O192  1  0.65208150  0.47676100  0.09987550  1
  O  O193  1  0.84753300  0.60225700  0.23527000  1
  O  O194  1  0.97799850  0.39397750  0.35295700  1
  O  O195  1  0.31299650  0.81205050  0.18997700  1
  O  O196  1  0.22799850  0.35602250  0.10295700  1
  O  O197  1  0.77200150  0.64397750  0.10295700  1
  O  O198  1  0.59791850  0.72676100  0.34987550  1
  O  O199  1  0.34791850  0.52323900  0.09987550  1
  O  O200  1  0.90208150  0.72676100  0.15012450  1
  O  O201  1  0.15208150  0.52323900  0.40012450  1
  O  O202  1  0.47799850  0.60602250  0.14704300  1
  O  O203  1  0.52200150  0.39397750  0.14704300  1
  O  O204  1  0.93700350  0.43794950  0.06002300  1
  O  O205  1  0.27200150  0.35602250  0.39704300  1
  O  O206  1  0.90246700  0.14774300  0.01473000  1
  O  O207  1  0.09791850  0.27323900  0.15012450  1
  O  O208  1  0.43700350  0.56205050  0.43997700  1
  O  O209  1  0.06299650  0.56205050  0.06002300  1
  O  O210  1  0.40208150  0.27323900  0.34987550  1
  O  O211  1  0.09753300  0.85225700  0.01473000  1
  O  O212  1  0.34753300  0.39774300  0.26473000  1
  O  O213  1  0.59753300  0.14774300  0.48527000  1
  O  O214  1  0.56299650  0.43794950  0.43997700  1
  O  O215  1  0.02200150  0.60602250  0.35295700  1
