# generated using pymatgen
data_Li2FeO3
_symmetry_space_group_name_H-M   'P 1'
_cell_length_a   12.44556200
_cell_length_b   2.89542400
_cell_length_c   5.86586085
_cell_angle_alpha   90.00000000
_cell_angle_beta   104.26624628
_cell_angle_gamma   90.00000000
_symmetry_Int_Tables_number   1
_chemical_formula_structural   Li2FeO3
_chemical_formula_sum   'Li8 Fe4 O12'
_cell_volume   204.85869483
_cell_formula_units_Z   4
loop_
 _symmetry_equiv_pos_site_id
 _symmetry_equiv_pos_as_xyz
  1  'x, y, z'
loop_
 _atom_site_type_symbol
 _atom_site_label
 _atom_site_symmetry_multiplicity
 _atom_site_fract_x
 _atom_site_fract_y
 _atom_site_fract_z
 _atom_site_occupancy
  Li  Li0  1  0.33991800  0.50000000  0.15959200  1
  Li  Li1  1  0.16008200  0.00000000  0.84040800  1
  Li  Li2  1  0.00000000  0.50000000  0.50000000  1
  Li  Li3  1  0.00000000  0.50000000  0.00000000  1
  Li  Li4  1  0.83991800  0.00000000  0.15959200  1
  Li  Li5  1  0.66008200  0.50000000  0.84040800  1
  Li  Li6  1  0.50000000  0.00000000  0.50000000  1
  Li  Li7  1  0.50000000  0.00000000  0.00000000  1
  Fe  Fe8  1  0.33888700  0.50000000  0.67298600  1
  Fe  Fe9  1  0.16111300  0.00000000  0.32701400  1
  Fe  Fe10  1  0.83888700  0.00000000  0.67298600  1
  Fe  Fe11  1  0.66111300  0.50000000  0.32701400  1
  O  O12  1  0.17423400  0.50000000  0.56372100  1
  O  O13  1  0.48558700  0.50000000  0.74032000  1
  O  O14  1  0.01441300  0.00000000  0.25968000  1
  O  O15  1  0.17005900  0.50000000  0.11489400  1
  O  O16  1  0.32576600  0.00000000  0.43627900  1
  O  O17  1  0.32994100  0.00000000  0.88510600  1
  O  O18  1  0.67423400  0.00000000  0.56372100  1
  O  O19  1  0.98558700  0.00000000  0.74032000  1
  O  O20  1  0.51441300  0.50000000  0.25968000  1
  O  O21  1  0.67005900  0.00000000  0.11489400  1
  O  O22  1  0.82576600  0.50000000  0.43627900  1
  O  O23  1  0.82994100  0.50000000  0.88510600  1
