# generated using pymatgen
data_LiMnPO4
_symmetry_space_group_name_H-M   'P 1'
_cell_length_a   5.30988800
_cell_length_b   8.11062500
_cell_length_c   8.60430100
_cell_angle_alpha   90.00000000
_cell_angle_beta   90.00000000
_cell_angle_gamma   90.00000000
_symmetry_Int_Tables_number   1
_chemical_formula_structural   LiMnPO4
_chemical_formula_sum   'Li4 Mn4 P4 O16'
_cell_volume   370.55721818
_cell_formula_units_Z   4
loop_
 _symmetry_equiv_pos_site_id
 _symmetry_equiv_pos_as_xyz
  1  'x, y, z'
loop_
 _atom_site_type_symbol
 _atom_site_label
 _atom_site_symmetry_multiplicity
 _atom_site_fract_x
 _atom_site_fract_y
 _atom_site_fract_z
 _atom_site_occupancy
  Li  Li0  1  0.33794900  0.53596400  0.19586650  1
  Li  Li1  1  0.33794900  0.03596400  0.30413350  1
  Li  Li2  1  0.83794900  0.96403600  0.69586650  1
  Li  Li3  1  0.83794900  0.46403600  0.80413350  1
  Mn  Mn4  1  0.96938100  0.82722500  0.05925250  1
  Mn  Mn5  1  0.96938100  0.32722500  0.44074750  1
  Mn  Mn6  1  0.46938100  0.67277500  0.55925250  1
  Mn  Mn7  1  0.46938100  0.17277500  0.94074750  1
  P  P8  1  0.00640700  0.24881400  0.07478750  1
  P  P9  1  0.00640700  0.74881400  0.42521250  1
  P  P10  1  0.50640700  0.25118600  0.57478750  1
  P  P11  1  0.50640700  0.75118600  0.92521250  1
  O  O12  1  0.23776200  0.36445700  0.05874650  1
  O  O13  1  0.34023400  0.73971600  0.07366850  1
  O  O14  1  0.13555400  0.07118200  0.08419650  1
  O  O15  1  0.84201100  0.27998100  0.21834450  1
  O  O16  1  0.84201100  0.77998100  0.28165550  1
  O  O17  1  0.13555400  0.57118200  0.41580350  1
  O  O18  1  0.34023400  0.23971600  0.42633150  1
  O  O19  1  0.23776200  0.86445700  0.44125350  1
  O  O20  1  0.73776200  0.13554300  0.55874650  1
  O  O21  1  0.84023400  0.76028400  0.57366850  1
  O  O22  1  0.63555400  0.42881800  0.58419650  1
  O  O23  1  0.34201100  0.22001900  0.71834450  1
  O  O24  1  0.34201100  0.72001900  0.78165550  1
  O  O25  1  0.63555400  0.92881800  0.91580350  1
  O  O26  1  0.84023400  0.26028400  0.92633150  1
  O  O27  1  0.73776200  0.63554300  0.94125350  1
