# generated using pymatgen
data_Li3(NiO2)4
_symmetry_space_group_name_H-M   'P 1'
_cell_length_a   10.10004036
_cell_length_b   5.71203253
_cell_length_c   5.64775925
_cell_angle_alpha   90.00000000
_cell_angle_beta   123.34438207
_cell_angle_gamma   90.00000000
_symmetry_Int_Tables_number   1
_chemical_formula_structural   Li3(NiO2)4
_chemical_formula_sum   'Li6 Ni8 O16'
_cell_volume   272.19176496
_cell_formula_units_Z   2
loop_
 _symmetry_equiv_pos_site_id
 _symmetry_equiv_pos_as_xyz
  1  'x, y, z'
loop_
 _atom_site_type_symbol
 _atom_site_label
 _atom_site_symmetry_multiplicity
 _atom_site_fract_x
 _atom_site_fract_y
 _atom_site_fract_z
 _atom_site_occupancy
  Li  Li0  1  0.00000000  0.50000000  0.00000000  1
  Li  Li1  1  0.75000000  0.75000000  0.50000000  1
  Li  Li2  1  0.75000000  0.25000000  0.50000000  1
  Li  Li3  1  0.50000000  0.00000000  0.00000000  1
  Li  Li4  1  0.25000000  0.25000000  0.50000000  1
  Li  Li5  1  0.25000000  0.75000000  0.50000000  1
  Ni  Ni6  1  0.25000000  0.25000000  0.00000000  1
  Ni  Ni7  1  0.75000000  0.25000000  0.00000000  1
  Ni  Ni8  1  0.00000000  0.00000000  0.50000000  1
  Ni  Ni9  1  0.00000000  0.00000000  0.00000000  1
  Ni  Ni10  1  0.75000000  0.75000000  0.00000000  1
  Ni  Ni11  1  0.25000000  0.75000000  0.00000000  1
  Ni  Ni12  1  0.50000000  0.50000000  0.50000000  1
  Ni  Ni13  1  0.50000000  0.50000000  0.00000000  1
  O  O14  1  0.22241800  0.00000000  0.20898900  1
  O  O15  1  0.77758200  0.00000000  0.79101100  1
  O  O16  1  0.75287500  0.50000000  0.78094600  1
  O  O17  1  0.24712500  0.50000000  0.21905400  1
  O  O18  1  0.99905800  0.77862700  0.24477500  1
  O  O19  1  0.99905800  0.22137300  0.24477500  1
  O  O20  1  0.00094200  0.77862700  0.75522500  1
  O  O21  1  0.00094200  0.22137300  0.75522500  1
  O  O22  1  0.72241800  0.50000000  0.20898900  1
  O  O23  1  0.27758200  0.50000000  0.79101100  1
  O  O24  1  0.25287500  0.00000000  0.78094600  1
  O  O25  1  0.74712500  0.00000000  0.21905400  1
  O  O26  1  0.49905800  0.27862700  0.24477500  1
  O  O27  1  0.49905800  0.72137300  0.24477500  1
  O  O28  1  0.50094200  0.27862700  0.75522500  1
  O  O29  1  0.50094200  0.72137300  0.75522500  1
