# generated using pymatgen
data_Li4Ni(PO3)6
_symmetry_space_group_name_H-M   'P 1'
_cell_length_a   12.38486200
_cell_length_b   7.74115400
_cell_length_c   13.92682037
_cell_angle_alpha   90.00000000
_cell_angle_beta   93.87966782
_cell_angle_gamma   90.00000000
_symmetry_Int_Tables_number   1
_chemical_formula_structural   Li4Ni(PO3)6
_chemical_formula_sum   'Li16 Ni4 P24 O72'
_cell_volume   1332.14795018
_cell_formula_units_Z   4
loop_
 _symmetry_equiv_pos_site_id
 _symmetry_equiv_pos_as_xyz
  1  'x, y, z'
loop_
 _atom_site_type_symbol
 _atom_site_label
 _atom_site_symmetry_multiplicity
 _atom_site_fract_x
 _atom_site_fract_y
 _atom_site_fract_z
 _atom_site_occupancy
  Li  Li0  1  0.16882650  0.86978950  0.92379300  1
  Li  Li1  1  0.16882650  0.13021050  0.42379300  1
  Li  Li2  1  0.32928600  0.88719600  0.54684000  1
  Li  Li3  1  0.32928600  0.11280400  0.04684000  1
  Li  Li4  1  0.67071400  0.88719600  0.95316000  1
  Li  Li5  1  0.67071400  0.11280400  0.45316000  1
  Li  Li6  1  0.83117350  0.86978950  0.57620700  1
  Li  Li7  1  0.83117350  0.13021050  0.07620700  1
  Li  Li8  1  0.66882650  0.36978950  0.92379300  1
  Li  Li9  1  0.66882650  0.63021050  0.42379300  1
  Li  Li10  1  0.82928600  0.38719600  0.54684000  1
  Li  Li11  1  0.82928600  0.61280400  0.04684000  1
  Li  Li12  1  0.17071400  0.38719600  0.95316000  1
  Li  Li13  1  0.17071400  0.61280400  0.45316000  1
  Li  Li14  1  0.33117350  0.36978950  0.57620700  1
  Li  Li15  1  0.33117350  0.63021050  0.07620700  1
  Ni  Ni16  1  0.50000000  0.12970100  0.75000000  1
  Ni  Ni17  1  0.50000000  0.87029900  0.25000000  1
  Ni  Ni18  1  0.00000000  0.62970100  0.75000000  1
  Ni  Ni19  1  0.00000000  0.37029900  0.25000000  1
  P  P20  1  0.09141550  0.94306450  0.61509200  1
  P  P21  1  0.09141550  0.05693550  0.11509200  1
  P  P22  1  0.23371050  0.13783150  0.75245700  1
  P  P23  1  0.23371050  0.86216850  0.25245700  1
  P  P24  1  0.41527450  0.81673050  0.88832700  1
  P  P25  1  0.41527450  0.18326950  0.38832700  1
  P  P26  1  0.58472550  0.81673050  0.61167300  1
  P  P27  1  0.58472550  0.18326950  0.11167300  1
  P  P28  1  0.76628950  0.13783150  0.74754300  1
  P  P29  1  0.76628950  0.86216850  0.24754300  1
  P  P30  1  0.90858450  0.94306450  0.88490800  1
  P  P31  1  0.90858450  0.05693550  0.38490800  1
  P  P32  1  0.59141550  0.44306450  0.61509200  1
  P  P33  1  0.59141550  0.55693550  0.11509200  1
  P  P34  1  0.73371050  0.63783150  0.75245700  1
  P  P35  1  0.73371050  0.36216850  0.25245700  1
  P  P36  1  0.91527450  0.31673050  0.88832700  1
  P  P37  1  0.91527450  0.68326950  0.38832700  1
  P  P38  1  0.08472550  0.31673050  0.61167300  1
  P  P39  1  0.08472550  0.68326950  0.11167300  1
  P  P40  1  0.26628950  0.63783150  0.74754300  1
  P  P41  1  0.26628950  0.36216850  0.24754300  1
  P  P42  1  0.40858450  0.44306450  0.88490800  1
  P  P43  1  0.40858450  0.55693550  0.38490800  1
  O  O44  1  0.16140450  0.97400950  0.71492600  1
  O  O45  1  0.16487450  0.91839250  0.53445800  1
  O  O46  1  0.16140450  0.02599050  0.21492600  1
  O  O47  1  0.16487450  0.08160750  0.03445800  1
  O  O48  1  0.23512600  0.13573700  0.85927300  1
  O  O49  1  0.23512600  0.86426300  0.35927300  1
  O  O50  1  0.34301700  0.84711400  0.96964800  1
  O  O51  1  0.33719300  0.14247400  0.70085500  1
  O  O52  1  0.34287250  0.79487650  0.78828000  1
  O  O53  1  0.34301700  0.15288600  0.46964800  1
  O  O54  1  0.33719300  0.85752600  0.20085500  1
  O  O55  1  0.34287250  0.20512350  0.28828000  1
  O  O56  1  0.47090050  0.62699750  0.89957500  1
  O  O57  1  0.49408100  0.31253900  0.86531300  1
  O  O58  1  0.50443350  0.94108550  0.86891200  1
  O  O59  1  0.47090050  0.37300250  0.39957500  1
  O  O60  1  0.49556650  0.94108550  0.63108800  1
  O  O61  1  0.49408100  0.68746100  0.36531300  1
  O  O62  1  0.50591900  0.31253900  0.63468700  1
  O  O63  1  0.50443350  0.05891450  0.36891200  1
  O  O64  1  0.52909950  0.62699750  0.60042500  1
  O  O65  1  0.49556650  0.05891450  0.13108800  1
  O  O66  1  0.50591900  0.68746100  0.13468700  1
  O  O67  1  0.52909950  0.37300250  0.10042500  1
  O  O68  1  0.65712750  0.79487650  0.71172000  1
  O  O69  1  0.66280700  0.14247400  0.79914500  1
  O  O70  1  0.65698300  0.84711400  0.53035200  1
  O  O71  1  0.65712750  0.20512350  0.21172000  1
  O  O72  1  0.66280700  0.85752600  0.29914500  1
  O  O73  1  0.65698300  0.15288600  0.03035200  1
  O  O74  1  0.76487400  0.13573700  0.64072700  1
  O  O75  1  0.76487400  0.86426300  0.14072700  1
  O  O76  1  0.83512550  0.91839250  0.96554200  1
  O  O77  1  0.83859550  0.97400950  0.78507400  1
  O  O78  1  0.83512550  0.08160750  0.46554200  1
  O  O79  1  0.83859550  0.02599050  0.28507400  1
  O  O80  1  0.66140450  0.47400950  0.71492600  1
  O  O81  1  0.66487450  0.41839250  0.53445800  1
  O  O82  1  0.66140450  0.52599050  0.21492600  1
  O  O83  1  0.66487450  0.58160750  0.03445800  1
  O  O84  1  0.73512600  0.63573700  0.85927300  1
  O  O85  1  0.73512600  0.36426300  0.35927300  1
  O  O86  1  0.84301700  0.34711400  0.96964800  1
  O  O87  1  0.83719300  0.64247400  0.70085500  1
  O  O88  1  0.84287250  0.29487650  0.78828000  1
  O  O89  1  0.84301700  0.65288600  0.46964800  1
  O  O90  1  0.83719300  0.35752600  0.20085500  1
  O  O91  1  0.84287250  0.70512350  0.28828000  1
  O  O92  1  0.97090050  0.12699750  0.89957500  1
  O  O93  1  0.99408100  0.81253900  0.86531300  1
  O  O94  1  0.00443350  0.44108550  0.86891200  1
  O  O95  1  0.97090050  0.87300250  0.39957500  1
  O  O96  1  0.99556650  0.44108550  0.63108800  1
  O  O97  1  0.99408100  0.18746100  0.36531300  1
  O  O98  1  0.00591900  0.81253900  0.63468700  1
  O  O99  1  0.00443350  0.55891450  0.36891200  1
  O  O100  1  0.02909950  0.12699750  0.60042500  1
  O  O101  1  0.99556650  0.55891450  0.13108800  1
  O  O102  1  0.00591900  0.18746100  0.13468700  1
  O  O103  1  0.02909950  0.87300250  0.10042500  1
  O  O104  1  0.15712750  0.29487650  0.71172000  1
  O  O105  1  0.16280700  0.64247400  0.79914500  1
  O  O106  1  0.15698300  0.34711400  0.53035200  1
  O  O107  1  0.15712750  0.70512350  0.21172000  1
  O  O108  1  0.16280700  0.35752600  0.29914500  1
  O  O109  1  0.15698300  0.65288600  0.03035200  1
  O  O110  1  0.26487400  0.63573700  0.64072700  1
  O  O111  1  0.26487400  0.36426300  0.14072700  1
  O  O112  1  0.33512550  0.41839250  0.96554200  1
  O  O113  1  0.33859550  0.47400950  0.78507400  1
  O  O114  1  0.33512550  0.58160750  0.46554200  1
  O  O115  1  0.33859550  0.52599050  0.28507400  1
