# generated using pymatgen
data_Nb16Tl16O53
_symmetry_space_group_name_H-M   'P 1'
_cell_length_a   10.77979600
_cell_length_b   10.77979600
_cell_length_c   21.56632800
_cell_angle_alpha   90.00000000
_cell_angle_beta   90.00000000
_cell_angle_gamma   90.00000000
_symmetry_Int_Tables_number   1
_chemical_formula_structural   Nb16Tl16O53
_chemical_formula_sum   'Nb32 Tl32 O106'
_cell_volume   2506.09361777
_cell_formula_units_Z   2
loop_
 _symmetry_equiv_pos_site_id
 _symmetry_equiv_pos_as_xyz
  1  'x, y, z'
loop_
 _atom_site_type_symbol
 _atom_site_label
 _atom_site_symmetry_multiplicity
 _atom_site_fract_x
 _atom_site_fract_y
 _atom_site_fract_z
 _atom_site_occupancy
  Nb  Nb0  1  0.37451050  0.12604150  0.43725550  1
  Nb  Nb1  1  0.62548950  0.87395850  0.43725550  1
  Nb  Nb2  1  0.87395850  0.62548950  0.43725550  1
  Nb  Nb3  1  0.12604150  0.37451050  0.43725550  1
  Nb  Nb4  1  0.62593400  0.62593400  0.31346050  1
  Nb  Nb5  1  0.37406600  0.37406600  0.31346050  1
  Nb  Nb6  1  0.87627200  0.87627200  0.31190450  1
  Nb  Nb7  1  0.12372800  0.12372800  0.31190450  1
  Nb  Nb8  1  0.62372800  0.37627200  0.18809550  1
  Nb  Nb9  1  0.37627200  0.62372800  0.18809550  1
  Nb  Nb10  1  0.87406600  0.12593400  0.18653950  1
  Nb  Nb11  1  0.12593400  0.87406600  0.18653950  1
  Nb  Nb12  1  0.62604150  0.12548950  0.06274450  1
  Nb  Nb13  1  0.12548950  0.62604150  0.06274450  1
  Nb  Nb14  1  0.87451050  0.37395850  0.06274450  1
  Nb  Nb15  1  0.37395850  0.87451050  0.06274450  1
  Nb  Nb16  1  0.87451050  0.62604150  0.93725550  1
  Nb  Nb17  1  0.12548950  0.37395850  0.93725550  1
  Nb  Nb18  1  0.37395850  0.12548950  0.93725550  1
  Nb  Nb19  1  0.62604150  0.87451050  0.93725550  1
  Nb  Nb20  1  0.12593400  0.12593400  0.81346050  1
  Nb  Nb21  1  0.87406600  0.87406600  0.81346050  1
  Nb  Nb22  1  0.37627200  0.37627200  0.81190450  1
  Nb  Nb23  1  0.62372800  0.62372800  0.81190450  1
  Nb  Nb24  1  0.12372800  0.87627200  0.68809550  1
  Nb  Nb25  1  0.87627200  0.12372800  0.68809550  1
  Nb  Nb26  1  0.37406600  0.62593400  0.68653950  1
  Nb  Nb27  1  0.62593400  0.37406600  0.68653950  1
  Nb  Nb28  1  0.12604150  0.62548950  0.56274450  1
  Nb  Nb29  1  0.62548950  0.12604150  0.56274450  1
  Nb  Nb30  1  0.37451050  0.87395850  0.56274450  1
  Nb  Nb31  1  0.87395850  0.37451050  0.56274450  1
  Tl  Tl32  1  0.87594350  0.12405650  0.44134700  1
  Tl  Tl33  1  0.37534850  0.62465150  0.43788100  1
  Tl  Tl34  1  0.62465150  0.37534850  0.43788100  1
  Tl  Tl35  1  0.12405650  0.87594350  0.44134700  1
  Tl  Tl36  1  0.12142350  0.61791850  0.31118950  1
  Tl  Tl37  1  0.38208150  0.87857650  0.31118950  1
  Tl  Tl38  1  0.87857650  0.38208150  0.31118950  1
  Tl  Tl39  1  0.61791850  0.12142350  0.31118950  1
  Tl  Tl40  1  0.11791850  0.37857650  0.18881050  1
  Tl  Tl41  1  0.62142350  0.88208150  0.18881050  1
  Tl  Tl42  1  0.37857650  0.11791850  0.18881050  1
  Tl  Tl43  1  0.88208150  0.62142350  0.18881050  1
  Tl  Tl44  1  0.37594350  0.37594350  0.05865300  1
  Tl  Tl45  1  0.12465150  0.12465150  0.06211900  1
  Tl  Tl46  1  0.62405650  0.62405650  0.05865300  1
  Tl  Tl47  1  0.87534850  0.87534850  0.06211900  1
  Tl  Tl48  1  0.37594350  0.62405650  0.94134700  1
  Tl  Tl49  1  0.87534850  0.12465150  0.93788100  1
  Tl  Tl50  1  0.12465150  0.87534850  0.93788100  1
  Tl  Tl51  1  0.62405650  0.37594350  0.94134700  1
  Tl  Tl52  1  0.62142350  0.11791850  0.81118950  1
  Tl  Tl53  1  0.88208150  0.37857650  0.81118950  1
  Tl  Tl54  1  0.37857650  0.88208150  0.81118950  1
  Tl  Tl55  1  0.11791850  0.62142350  0.81118950  1
  Tl  Tl56  1  0.61791850  0.87857650  0.68881050  1
  Tl  Tl57  1  0.12142350  0.38208150  0.68881050  1
  Tl  Tl58  1  0.87857650  0.61791850  0.68881050  1
  Tl  Tl59  1  0.38208150  0.12142350  0.68881050  1
  Tl  Tl60  1  0.87594350  0.87594350  0.55865300  1
  Tl  Tl61  1  0.62465150  0.62465150  0.56211900  1
  Tl  Tl62  1  0.12405650  0.12405650  0.55865300  1
  Tl  Tl63  1  0.37534850  0.37534850  0.56211900  1
  O  O64  1  0.00000000  0.50000000  0.41072200  1
  O  O65  1  0.50000000  0.00000000  0.41072200  1
  O  O66  1  0.43988650  0.25178250  0.37608250  1
  O  O67  1  0.25178250  0.43988650  0.37608250  1
  O  O68  1  0.25176350  0.06855850  0.37586850  1
  O  O69  1  0.73883350  0.26116650  0.38272500  1
  O  O70  1  0.74821750  0.56011350  0.37608250  1
  O  O71  1  0.74823650  0.93144150  0.37586850  1
  O  O72  1  0.06855850  0.25176350  0.37586850  1
  O  O73  1  0.26116650  0.73883350  0.38272500  1
  O  O74  1  0.56011350  0.74821750  0.37608250  1
  O  O75  1  0.93144150  0.74823650  0.37586850  1
  O  O76  1  0.50000000  0.50000000  0.35359200  1
  O  O77  1  0.00000000  0.00000000  0.34342000  1
  O  O78  1  0.25177350  0.25177350  0.28480000  1
  O  O79  1  0.74822650  0.74822650  0.28480000  1
  O  O80  1  0.00092000  0.18113500  0.24933300  1
  O  O81  1  0.31886500  0.50092000  0.25066700  1
  O  O82  1  0.50092000  0.31886500  0.25066700  1
  O  O83  1  0.99908000  0.81886500  0.24933300  1
  O  O84  1  0.68113500  0.49908000  0.25066700  1
  O  O85  1  0.49908000  0.68113500  0.25066700  1
  O  O86  1  0.18113500  0.00092000  0.24933300  1
  O  O87  1  0.81886500  0.99908000  0.24933300  1
  O  O88  1  0.24822650  0.75177350  0.21520000  1
  O  O89  1  0.75177350  0.24822650  0.21520000  1
  O  O90  1  0.00000000  0.00000000  0.14640800  1
  O  O91  1  0.50000000  0.50000000  0.15658000  1
  O  O92  1  0.75178250  0.06011350  0.12391750  1
  O  O93  1  0.24823650  0.56855850  0.12413150  1
  O  O94  1  0.23883350  0.23883350  0.11727500  1
  O  O95  1  0.75176350  0.43144150  0.12413150  1
  O  O96  1  0.06011350  0.75178250  0.12391750  1
  O  O97  1  0.56855850  0.24823650  0.12413150  1
  O  O98  1  0.76116650  0.76116650  0.11727500  1
  O  O99  1  0.43144150  0.75176350  0.12413150  1
  O  O100  1  0.93988650  0.24821750  0.12391750  1
  O  O101  1  0.24821750  0.93988650  0.12391750  1
  O  O102  1  0.50000000  0.00000000  0.08927800  1
  O  O103  1  0.00000000  0.50000000  0.08927800  1
  O  O104  1  0.24864900  0.75135100  0.02981550  1
  O  O105  1  0.75135100  0.24864900  0.02981550  1
  O  O106  1  0.18031500  0.50000000  0.00000000  1
  O  O107  1  0.70721000  0.00000000  0.00000000  1
  O  O108  1  0.00000000  0.70721000  0.00000000  1
  O  O109  1  0.00000000  0.29279000  0.00000000  1
  O  O110  1  0.50000000  0.18031500  0.00000000  1
  O  O111  1  0.81968500  0.50000000  0.00000000  1
  O  O112  1  0.00000000  0.00000000  0.00000000  1
  O  O113  1  0.50000000  0.81968500  0.00000000  1
  O  O114  1  0.29279000  0.00000000  0.00000000  1
  O  O115  1  0.25135100  0.25135100  0.47018450  1
  O  O116  1  0.74864900  0.74864900  0.47018450  1
  O  O117  1  0.50000000  0.00000000  0.91072200  1
  O  O118  1  0.00000000  0.50000000  0.91072200  1
  O  O119  1  0.93988650  0.75178250  0.87608250  1
  O  O120  1  0.75178250  0.93988650  0.87608250  1
  O  O121  1  0.75176350  0.56855850  0.87586850  1
  O  O122  1  0.23883350  0.76116650  0.88272500  1
  O  O123  1  0.24821750  0.06011350  0.87608250  1
  O  O124  1  0.24823650  0.43144150  0.87586850  1
  O  O125  1  0.56855850  0.75176350  0.87586850  1
  O  O126  1  0.76116650  0.23883350  0.88272500  1
  O  O127  1  0.06011350  0.24821750  0.87608250  1
  O  O128  1  0.43144150  0.24823650  0.87586850  1
  O  O129  1  0.00000000  0.00000000  0.85359200  1
  O  O130  1  0.50000000  0.50000000  0.84342000  1
  O  O131  1  0.75177350  0.75177350  0.78480000  1
  O  O132  1  0.24822650  0.24822650  0.78480000  1
  O  O133  1  0.50092000  0.68113500  0.74933300  1
  O  O134  1  0.81886500  0.00092000  0.75066700  1
  O  O135  1  0.00092000  0.81886500  0.75066700  1
  O  O136  1  0.49908000  0.31886500  0.74933300  1
  O  O137  1  0.18113500  0.99908000  0.75066700  1
  O  O138  1  0.99908000  0.18113500  0.75066700  1
  O  O139  1  0.68113500  0.50092000  0.74933300  1
  O  O140  1  0.31886500  0.49908000  0.74933300  1
  O  O141  1  0.74822650  0.25177350  0.71520000  1
  O  O142  1  0.25177350  0.74822650  0.71520000  1
  O  O143  1  0.50000000  0.50000000  0.64640800  1
  O  O144  1  0.00000000  0.00000000  0.65658000  1
  O  O145  1  0.25178250  0.56011350  0.62391750  1
  O  O146  1  0.74823650  0.06855850  0.62413150  1
  O  O147  1  0.73883350  0.73883350  0.61727500  1
  O  O148  1  0.25176350  0.93144150  0.62413150  1
  O  O149  1  0.56011350  0.25178250  0.62391750  1
  O  O150  1  0.06855850  0.74823650  0.62413150  1
  O  O151  1  0.26116650  0.26116650  0.61727500  1
  O  O152  1  0.93144150  0.25176350  0.62413150  1
  O  O153  1  0.43988650  0.74821750  0.62391750  1
  O  O154  1  0.74821750  0.43988650  0.62391750  1
  O  O155  1  0.00000000  0.50000000  0.58927800  1
  O  O156  1  0.50000000  0.00000000  0.58927800  1
  O  O157  1  0.74864900  0.25135100  0.52981550  1
  O  O158  1  0.25135100  0.74864900  0.52981550  1
  O  O159  1  0.68031500  0.00000000  0.50000000  1
  O  O160  1  0.20721000  0.50000000  0.50000000  1
  O  O161  1  0.50000000  0.20721000  0.50000000  1
  O  O162  1  0.50000000  0.79279000  0.50000000  1
  O  O163  1  0.00000000  0.68031500  0.50000000  1
  O  O164  1  0.31968500  0.00000000  0.50000000  1
  O  O165  1  0.50000000  0.50000000  0.50000000  1
  O  O166  1  0.00000000  0.31968500  0.50000000  1
  O  O167  1  0.79279000  0.50000000  0.50000000  1
  O  O168  1  0.75135100  0.75135100  0.97018450  1
  O  O169  1  0.24864900  0.24864900  0.97018450  1
