# generated using pymatgen
data_Cs2CoSe2
_symmetry_space_group_name_H-M   'P 1'
_cell_length_a   6.64562400
_cell_length_b   7.55896600
_cell_length_c   14.45473000
_cell_angle_alpha   90.00000000
_cell_angle_beta   90.00000000
_cell_angle_gamma   90.00000000
_symmetry_Int_Tables_number   1
_chemical_formula_structural   Cs2CoSe2
_chemical_formula_sum   'Cs8 Co4 Se8'
_cell_volume   726.11956978
_cell_formula_units_Z   4
loop_
 _symmetry_equiv_pos_site_id
 _symmetry_equiv_pos_as_xyz
  1  'x, y, z'
loop_
 _atom_site_type_symbol
 _atom_site_label
 _atom_site_symmetry_multiplicity
 _atom_site_fract_x
 _atom_site_fract_y
 _atom_site_fract_z
 _atom_site_occupancy
  Cs  Cs0  1  0.00000000  0.17313550  0.35415750  1
  Cs  Cs1  1  0.50000000  0.32686450  0.14584250  1
  Cs  Cs2  1  0.00000000  0.67313550  0.14584250  1
  Cs  Cs3  1  0.50000000  0.82686450  0.35415750  1
  Cs  Cs4  1  0.50000000  0.67313550  0.85415750  1
  Cs  Cs5  1  0.00000000  0.82686450  0.64584250  1
  Cs  Cs6  1  0.50000000  0.17313550  0.64584250  1
  Cs  Cs7  1  0.00000000  0.32686450  0.85415750  1
  Co  Co8  1  0.25000000  0.00000000  0.00000000  1
  Co  Co9  1  0.75000000  0.00000000  0.00000000  1
  Co  Co10  1  0.75000000  0.50000000  0.50000000  1
  Co  Co11  1  0.25000000  0.50000000  0.50000000  1
  Se  Se12  1  0.00000000  0.66394400  0.40870800  1
  Se  Se13  1  0.00000000  0.16394400  0.09129200  1
  Se  Se14  1  0.50000000  0.33605600  0.40870800  1
  Se  Se15  1  0.50000000  0.83605600  0.09129200  1
  Se  Se16  1  0.50000000  0.16394400  0.90870800  1
  Se  Se17  1  0.50000000  0.66394400  0.59129200  1
  Se  Se18  1  0.00000000  0.83605600  0.90870800  1
  Se  Se19  1  0.00000000  0.33605600  0.59129200  1
