# generated using pymatgen
data_Ti3VFe2(PO4)6
_symmetry_space_group_name_H-M   'P 1'
_cell_length_a   8.68666185
_cell_length_b   8.68666185
_cell_length_c   20.89127050
_cell_angle_alpha   90.00000000
_cell_angle_beta   90.00000000
_cell_angle_gamma   120.00000000
_symmetry_Int_Tables_number   1
_chemical_formula_structural   Ti3VFe2(PO4)6
_chemical_formula_sum   'Ti9 V3 Fe6 P18 O72'
_cell_volume   1365.21583086
_cell_formula_units_Z   3
loop_
 _symmetry_equiv_pos_site_id
 _symmetry_equiv_pos_as_xyz
  1  'x, y, z'
loop_
 _atom_site_type_symbol
 _atom_site_label
 _atom_site_symmetry_multiplicity
 _atom_site_fract_x
 _atom_site_fract_y
 _atom_site_fract_z
 _atom_site_occupancy
  Ti  Ti0  1  0.33333333  0.66666667  0.31124767  1
  Ti  Ti1  1  0.33333333  0.66666667  0.52346967  1
  Ti  Ti2  1  0.33333333  0.66666667  0.02114967  1
  Ti  Ti3  1  0.00000000  0.00000000  0.64458100  1
  Ti  Ti4  1  0.00000000  0.00000000  0.85680300  1
  Ti  Ti5  1  0.00000000  0.00000000  0.35448300  1
  Ti  Ti6  1  0.66666667  0.33333333  0.97791433  1
  Ti  Ti7  1  0.66666667  0.33333333  0.19013633  1
  Ti  Ti8  1  0.66666667  0.33333333  0.68781633  1
  V  V9  1  0.33333333  0.66666667  0.80742967  1
  V  V10  1  0.00000000  0.00000000  0.14076300  1
  V  V11  1  0.66666667  0.33333333  0.47409633  1
  Fe  Fe12  1  0.33333333  0.66666667  0.66787667  1
  Fe  Fe13  1  0.33333333  0.66666667  0.16750467  1
  Fe  Fe14  1  0.00000000  0.00000000  0.00121000  1
  Fe  Fe15  1  0.00000000  0.00000000  0.50083800  1
  Fe  Fe16  1  0.66666667  0.33333333  0.33454333  1
  Fe  Fe17  1  0.66666667  0.33333333  0.83417133  1
  P  P18  1  0.29410600  0.00027800  0.24925600  1
  P  P19  1  0.99972200  0.29382800  0.24925600  1
  P  P20  1  0.70617200  0.70589400  0.24925600  1
  P  P21  1  0.96047133  0.62517667  0.08315267  1
  P  P22  1  0.66470533  0.03952867  0.08315267  1
  P  P23  1  0.37482333  0.33529467  0.08315267  1
  P  P24  1  0.96077267  0.33361133  0.58258933  1
  P  P25  1  0.66638867  0.62716133  0.58258933  1
  P  P26  1  0.37283867  0.03922733  0.58258933  1
  P  P27  1  0.62713800  0.95851000  0.41648600  1
  P  P28  1  0.33137200  0.37286200  0.41648600  1
  P  P29  1  0.04149000  0.66862800  0.41648600  1
  P  P30  1  0.62743933  0.66694467  0.91592267  1
  P  P31  1  0.33305533  0.96049467  0.91592267  1
  P  P32  1  0.03950533  0.37256067  0.91592267  1
  P  P33  1  0.29380467  0.29184333  0.74981933  1
  P  P34  1  0.99803867  0.70619533  0.74981933  1
  P  P35  1  0.70815667  0.00196133  0.74981933  1
  O  O36  1  0.33829333  0.85840467  0.97685067  1
  O  O37  1  0.14159533  0.47988867  0.97685067  1
  O  O38  1  0.52011133  0.66170667  0.97685067  1
  O  O39  1  0.48273267  0.16795933  0.25790933  1
  O  O40  1  0.20185667  0.00238333  0.18919633  1
  O  O41  1  0.31807533  0.83292267  0.24617867  1
  O  O42  1  0.83204067  0.31477333  0.25790933  1
  O  O43  1  0.16707733  0.48515267  0.24617867  1
  O  O44  1  0.52086567  0.85845733  0.47690533  1
  O  O45  1  0.51484733  0.68192467  0.24617867  1
  O  O46  1  0.97908133  0.80878967  0.07308867  1
  O  O47  1  0.33759167  0.47913433  0.47690533  1
  O  O48  1  0.99761667  0.19947333  0.18919633  1
  O  O49  1  0.68522667  0.51726733  0.25790933  1
  O  O50  1  0.14762900  0.64309000  0.09057900  1
  O  O51  1  0.80052667  0.79814333  0.18919633  1
  O  O52  1  0.49546100  0.85237100  0.09057900  1
  O  O53  1  0.82970833  0.02091867  0.07308867  1
  O  O54  1  0.35691000  0.50453900  0.09057900  1
  O  O55  1  0.14154267  0.66240833  0.47690533  1
  O  O56  1  0.19121033  0.17029167  0.07308867  1
  O  O57  1  0.15324200  0.67973300  0.35732000  1
  O  O58  1  0.52649100  0.84675800  0.35732000  1
  O  O59  1  0.32026700  0.47350900  0.35732000  1
  O  O60  1  0.00496000  0.19173800  0.31018400  1
  O  O61  1  0.80826200  0.81322200  0.31018400  1
  O  O62  1  0.18677800  0.99504000  0.31018400  1
  O  O63  1  0.14939933  0.50129267  0.59124267  1
  O  O64  1  0.86852333  0.33571667  0.52252967  1
  O  O65  1  0.98474200  0.16625600  0.57951200  1
  O  O66  1  0.49870733  0.64810667  0.59124267  1
  O  O67  1  0.83374400  0.81848600  0.57951200  1
  O  O68  1  0.18753233  0.19179067  0.81023867  1
  O  O69  1  0.18151400  0.01525800  0.57951200  1
  O  O70  1  0.64574800  0.14212300  0.40642200  1
  O  O71  1  0.00425833  0.81246767  0.81023867  1
  O  O72  1  0.66428333  0.53280667  0.52252967  1
  O  O73  1  0.35189333  0.85060067  0.59124267  1
  O  O74  1  0.81429567  0.97642333  0.42391233  1
  O  O75  1  0.46719333  0.13147667  0.52252967  1
  O  O76  1  0.16212767  0.18570433  0.42391233  1
  O  O77  1  0.49637500  0.35425200  0.40642200  1
  O  O78  1  0.02357667  0.83787233  0.42391233  1
  O  O79  1  0.80820933  0.99574167  0.81023867  1
  O  O80  1  0.85787700  0.50362500  0.40642200  1
  O  O81  1  0.81990867  0.01306633  0.69065333  1
  O  O82  1  0.19315767  0.18009133  0.69065333  1
  O  O83  1  0.98693367  0.80684233  0.69065333  1
  O  O84  1  0.67162667  0.52507133  0.64351733  1
  O  O85  1  0.47492867  0.14655533  0.64351733  1
  O  O86  1  0.85344467  0.32837333  0.64351733  1
  O  O87  1  0.81606600  0.83462600  0.92457600  1
  O  O88  1  0.53519000  0.66905000  0.85586300  1
  O  O89  1  0.65140867  0.49958933  0.91284533  1
  O  O90  1  0.16537400  0.98144000  0.92457600  1
  O  O91  1  0.50041067  0.15181933  0.91284533  1
  O  O92  1  0.85419900  0.52512400  0.14357200  1
  O  O93  1  0.84818067  0.34859133  0.91284533  1
  O  O94  1  0.31241467  0.47545633  0.73975533  1
  O  O95  1  0.67092500  0.14580100  0.14357200  1
  O  O96  1  0.33095000  0.86614000  0.85586300  1
  O  O97  1  0.01856000  0.18393400  0.92457600  1
  O  O98  1  0.48096233  0.30975667  0.75724567  1
  O  O99  1  0.13386000  0.46481000  0.85586300  1
  O  O100  1  0.82879433  0.51903767  0.75724567  1
  O  O101  1  0.16304167  0.68758533  0.73975533  1
  O  O102  1  0.69024333  0.17120567  0.75724567  1
  O  O103  1  0.47487600  0.32907500  0.14357200  1
  O  O104  1  0.52454367  0.83695833  0.73975533  1
  O  O105  1  0.48657533  0.34639967  0.02398667  1
  O  O106  1  0.85982433  0.51342467  0.02398667  1
  O  O107  1  0.65360033  0.14017567  0.02398667  1
