# generated using pymatgen
data_Mn7F16
_symmetry_space_group_name_H-M   'P 1'
_cell_length_a   6.56401196
_cell_length_b   6.56401196
_cell_length_c   26.60832776
_cell_angle_alpha   90.00000000
_cell_angle_beta   90.00000000
_cell_angle_gamma   120.00000000
_symmetry_Int_Tables_number   1
_chemical_formula_structural   Mn7F16
_chemical_formula_sum   'Mn21 F48'
_cell_volume   992.85754394
_cell_formula_units_Z   3
loop_
 _symmetry_equiv_pos_site_id
 _symmetry_equiv_pos_as_xyz
  1  'x, y, z'
loop_
 _atom_site_type_symbol
 _atom_site_label
 _atom_site_symmetry_multiplicity
 _atom_site_fract_x
 _atom_site_fract_y
 _atom_site_fract_z
 _atom_site_occupancy
  Mn  Mn0  1  0.66783867  0.70074733  0.22022333  1
  Mn  Mn1  1  0.36741400  0.36624200  0.11311000  1
  Mn  Mn2  1  0.63375800  0.00117200  0.11311000  1
  Mn  Mn3  1  0.03290867  0.33216133  0.22022333  1
  Mn  Mn4  1  0.29925267  0.96709133  0.22022333  1
  Mn  Mn5  1  0.99882800  0.63258600  0.11311000  1
  Mn  Mn6  1  0.00000000  0.00000000  0.00000000  1
  Mn  Mn7  1  0.33450533  0.03408067  0.55355667  1
  Mn  Mn8  1  0.03408067  0.69957533  0.44644333  1
  Mn  Mn9  1  0.30042467  0.33450533  0.44644333  1
  Mn  Mn10  1  0.69957533  0.66549467  0.55355667  1
  Mn  Mn11  1  0.96591933  0.30042467  0.55355667  1
  Mn  Mn12  1  0.66549467  0.96591933  0.44644333  1
  Mn  Mn13  1  0.66666667  0.33333333  0.33333333  1
  Mn  Mn14  1  0.00117200  0.36741400  0.88689000  1
  Mn  Mn15  1  0.70074733  0.03290867  0.77977667  1
  Mn  Mn16  1  0.96709133  0.66783867  0.77977667  1
  Mn  Mn17  1  0.36624200  0.99882800  0.88689000  1
  Mn  Mn18  1  0.63258600  0.63375800  0.88689000  1
  Mn  Mn19  1  0.33216133  0.29925267  0.77977667  1
  Mn  Mn20  1  0.33333333  0.66666667  0.66666667  1
  F  F21  1  0.66666667  0.33333333  0.09704533  1
  F  F22  1  0.68946267  0.57321833  0.29307933  1
  F  F23  1  0.71425933  0.73443567  0.13767267  1
  F  F24  1  0.40110233  0.35350967  0.19566067  1
  F  F25  1  0.78291100  0.02279600  0.04025400  1
  F  F26  1  0.23988500  0.21708900  0.04025400  1
  F  F27  1  0.64649033  0.04759267  0.19566067  1
  F  F28  1  0.33333333  0.66666667  0.09133367  1
  F  F29  1  0.33333333  0.66666667  0.24199967  1
  F  F30  1  0.02017633  0.28574067  0.13767267  1
  F  F31  1  0.42678167  0.11624433  0.29307933  1
  F  F32  1  0.88375567  0.31053733  0.29307933  1
  F  F33  1  0.26556433  0.97982367  0.13767267  1
  F  F34  1  0.95240733  0.59889767  0.19566067  1
  F  F35  1  0.97720400  0.76011500  0.04025400  1
  F  F36  1  0.00000000  0.00000000  0.23628800  1
  F  F37  1  0.33333333  0.66666667  0.43037867  1
  F  F38  1  0.35612933  0.90655167  0.62641267  1
  F  F39  1  0.38092600  0.06776900  0.47100600  1
  F  F40  1  0.06776900  0.68684300  0.52899400  1
  F  F41  1  0.44957767  0.35612933  0.37358733  1
  F  F42  1  0.90655167  0.55042233  0.37358733  1
  F  F43  1  0.31315700  0.38092600  0.52899400  1
  F  F44  1  0.00000000  0.00000000  0.42466700  1
  F  F45  1  0.00000000  0.00000000  0.57533300  1
  F  F46  1  0.68684300  0.61907400  0.47100600  1
  F  F47  1  0.09344833  0.44957767  0.62641267  1
  F  F48  1  0.55042233  0.64387067  0.62641267  1
  F  F49  1  0.93223100  0.31315700  0.47100600  1
  F  F50  1  0.61907400  0.93223100  0.52899400  1
  F  F51  1  0.64387067  0.09344833  0.37358733  1
  F  F52  1  0.66666667  0.33333333  0.56962133  1
  F  F53  1  0.00000000  0.00000000  0.76371200  1
  F  F54  1  0.02279600  0.23988500  0.95974600  1
  F  F55  1  0.04759267  0.40110233  0.80433933  1
  F  F56  1  0.73443567  0.02017633  0.86232733  1
  F  F57  1  0.11624433  0.68946267  0.70692067  1
  F  F58  1  0.57321833  0.88375567  0.70692067  1
  F  F59  1  0.97982367  0.71425933  0.86232733  1
  F  F60  1  0.66666667  0.33333333  0.75800033  1
  F  F61  1  0.66666667  0.33333333  0.90866633  1
  F  F62  1  0.35350967  0.95240733  0.80433933  1
  F  F63  1  0.76011500  0.78291100  0.95974600  1
  F  F64  1  0.21708900  0.97720400  0.95974600  1
  F  F65  1  0.59889767  0.64649033  0.80433933  1
  F  F66  1  0.28574067  0.26556433  0.86232733  1
  F  F67  1  0.31053733  0.42678167  0.70692067  1
  F  F68  1  0.33333333  0.66666667  0.90295467  1
