# generated using pymatgen
data_LiV4OF11
_symmetry_space_group_name_H-M   'P 1'
_cell_length_a   5.56832627
_cell_length_b   5.27440006
_cell_length_c   7.49783289
_cell_angle_alpha   90.00000000
_cell_angle_beta   93.76755463
_cell_angle_gamma   90.00000000
_symmetry_Int_Tables_number   1
_chemical_formula_structural   LiV4OF11
_chemical_formula_sum   'Li1 V4 O1 F11'
_cell_volume   219.73230030
_cell_formula_units_Z   1
loop_
 _symmetry_equiv_pos_site_id
 _symmetry_equiv_pos_as_xyz
  1  'x, y, z'
loop_
 _atom_site_type_symbol
 _atom_site_label
 _atom_site_symmetry_multiplicity
 _atom_site_fract_x
 _atom_site_fract_y
 _atom_site_fract_z
 _atom_site_occupancy
  Li  Li0  1  0.50000000  0.01717700  0.00000000  1
  V  V1  1  0.00003100  0.00081000  0.74643800  1
  V  V2  1  0.99996900  0.00081000  0.25356200  1
  V  V3  1  0.49886900  0.49199400  0.23995600  1
  V  V4  1  0.50113100  0.49199400  0.76004400  1
  O  O5  1  0.50000000  0.41085000  0.00000000  1
  F  F6  1  0.00000000  0.88363600  0.50000000  1
  F  F7  1  0.68379500  0.82455300  0.18547800  1
  F  F8  1  0.31620500  0.82455300  0.81452200  1
  F  F9  1  0.19437200  0.70682600  0.19403500  1
  F  F10  1  0.80562800  0.70682600  0.80596500  1
  F  F11  1  0.50000000  0.59211800  0.50000000  1
  F  F12  1  0.80881600  0.29910800  0.30491900  1
  F  F13  1  0.19118400  0.29910800  0.69508100  1
  F  F14  1  0.30912000  0.18249800  0.29751400  1
  F  F15  1  0.69088000  0.18249800  0.70248600  1
  F  F16  1  0.00000000  0.10997000  0.00000000  1
