# generated using pymatgen
data_VPO4
_symmetry_space_group_name_H-M   'P 1'
_cell_length_a   8.62683752
_cell_length_b   8.62683752
_cell_length_c   20.92692981
_cell_angle_alpha   90.00000000
_cell_angle_beta   90.00000000
_cell_angle_gamma   120.00000000
_symmetry_Int_Tables_number   1
_chemical_formula_structural   VPO4
_chemical_formula_sum   'V18 P18 O72'
_cell_volume   1348.77462279
_cell_formula_units_Z   18
loop_
 _symmetry_equiv_pos_site_id
 _symmetry_equiv_pos_as_xyz
  1  'x, y, z'
loop_
 _atom_site_type_symbol
 _atom_site_label
 _atom_site_symmetry_multiplicity
 _atom_site_fract_x
 _atom_site_fract_y
 _atom_site_fract_z
 _atom_site_occupancy
  V  V0  1  0.00000000  0.00000000  0.00000000  1
  V  V1  1  0.33333333  0.66666667  0.31016567  1
  V  V2  1  0.33333333  0.66666667  0.81016567  1
  V  V3  1  0.33333333  0.66666667  0.16666667  1
  V  V4  1  0.33333333  0.66666667  0.52316767  1
  V  V5  1  0.33333333  0.66666667  0.02316767  1
  V  V6  1  0.66666667  0.33333333  0.33333333  1
  V  V7  1  0.00000000  0.00000000  0.64349900  1
  V  V8  1  0.00000000  0.00000000  0.14349900  1
  V  V9  1  0.00000000  0.00000000  0.50000000  1
  V  V10  1  1.00000000  0.00000000  0.85650100  1
  V  V11  1  0.00000000  0.00000000  0.35650100  1
  V  V12  1  0.33333333  0.66666667  0.66666667  1
  V  V13  1  0.66666667  0.33333333  0.97683233  1
  V  V14  1  0.66666667  0.33333333  0.47683233  1
  V  V15  1  0.66666667  0.33333333  0.83333333  1
  V  V16  1  0.66666667  0.33333333  0.18983433  1
  V  V17  1  0.66666667  0.33333333  0.68983433  1
  P  P18  1  0.70712400  0.70712400  0.25000000  1
  P  P19  1  0.29287600  0.00000000  0.25000000  1
  P  P20  1  0.00000000  0.29287600  0.25000000  1
  P  P21  1  0.66666667  0.04045733  0.08333333  1
  P  P22  1  0.37379067  0.33333333  0.08333333  1
  P  P23  1  0.95954267  0.62620933  0.08333333  1
  P  P24  1  0.37379067  0.04045733  0.58333333  1
  P  P25  1  0.95954267  0.33333333  0.58333333  1
  P  P26  1  0.66666667  0.62620933  0.58333333  1
  P  P27  1  0.33333333  0.37379067  0.41666667  1
  P  P28  1  0.04045733  0.66666667  0.41666667  1
  P  P29  1  0.62620933  0.95954267  0.41666667  1
  P  P30  1  0.04045733  0.37379067  0.91666667  1
  P  P31  1  0.62620933  0.66666667  0.91666667  1
  P  P32  1  0.33333333  0.95954267  0.91666667  1
  P  P33  1  0.00000000  0.70712400  0.75000000  1
  P  P34  1  0.70712400  0.00000000  0.75000000  1
  P  P35  1  0.29287600  0.29287600  0.75000000  1
  O  O36  1  0.52526567  0.66078633  0.97738233  1
  O  O37  1  0.33921367  0.86447933  0.97738233  1
  O  O38  1  0.13552067  0.47473433  0.97738233  1
  O  O39  1  0.68408533  0.51623467  0.25642867  1
  O  O40  1  0.80806767  0.80218733  0.18928433  1
  O  O41  1  0.51623467  0.68408533  0.24357133  1
  O  O42  1  0.48376533  0.16785067  0.25642867  1
  O  O43  1  0.31591467  0.83214933  0.24357133  1
  O  O44  1  0.67254700  0.14140100  0.14404900  1
  O  O45  1  0.16785067  0.48376533  0.24357133  1
  O  O46  1  0.83451733  0.01741867  0.07690467  1
  O  O47  1  0.46885400  0.32745300  0.14404900  1
  O  O48  1  0.19781267  0.00588033  0.18928433  1
  O  O49  1  0.83214933  0.31591467  0.25642867  1
  O  O50  1  0.49881600  0.84956800  0.08976200  1
  O  O51  1  0.99411967  0.19193233  0.18928433  1
  O  O52  1  0.35075200  0.50118400  0.08976200  1
  O  O53  1  0.18290133  0.16548267  0.07690467  1
  O  O54  1  0.15043200  0.64924800  0.08976200  1
  O  O55  1  0.85859900  0.53114600  0.14404900  1
  O  O56  1  0.98258133  0.81709867  0.07690467  1
  O  O57  1  0.53114600  0.85859900  0.35595100  1
  O  O58  1  0.32745300  0.46885400  0.35595100  1
  O  O59  1  0.14140100  0.67254700  0.35595100  1
  O  O60  1  0.19193233  0.99411967  0.31071567  1
  O  O61  1  0.00588033  0.19781267  0.31071567  1
  O  O62  1  0.80218733  0.80806767  0.31071567  1
  O  O63  1  0.35075200  0.84956800  0.58976200  1
  O  O64  1  0.47473433  0.13552067  0.52261767  1
  O  O65  1  0.18290133  0.01741867  0.57690467  1
  O  O66  1  0.15043200  0.50118400  0.58976200  1
  O  O67  1  0.98258133  0.16548267  0.57690467  1
  O  O68  1  0.33921367  0.47473433  0.47738233  1
  O  O69  1  0.83451733  0.81709867  0.57690467  1
  O  O70  1  0.50118400  0.35075200  0.41023800  1
  O  O71  1  0.13552067  0.66078633  0.47738233  1
  O  O72  1  0.86447933  0.33921367  0.52261767  1
  O  O73  1  0.49881600  0.64924800  0.58976200  1
  O  O74  1  0.16548267  0.18290133  0.42309533  1
  O  O75  1  0.66078633  0.52526567  0.52261767  1
  O  O76  1  0.01741867  0.83451733  0.42309533  1
  O  O77  1  0.84956800  0.49881600  0.41023800  1
  O  O78  1  0.81709867  0.98258133  0.42309533  1
  O  O79  1  0.52526567  0.86447933  0.47738233  1
  O  O80  1  0.64924800  0.15043200  0.41023800  1
  O  O81  1  0.19781267  0.19193233  0.68928433  1
  O  O82  1  0.99411967  0.80218733  0.68928433  1
  O  O83  1  0.80806767  0.00588033  0.68928433  1
  O  O84  1  0.85859900  0.32745300  0.64404900  1
  O  O85  1  0.67254700  0.53114600  0.64404900  1
  O  O86  1  0.46885400  0.14140100  0.64404900  1
  O  O87  1  0.01741867  0.18290133  0.92309533  1
  O  O88  1  0.14140100  0.46885400  0.85595100  1
  O  O89  1  0.84956800  0.35075200  0.91023800  1
  O  O90  1  0.81709867  0.83451733  0.92309533  1
  O  O91  1  0.64924800  0.49881600  0.91023800  1
  O  O92  1  0.00588033  0.80806767  0.81071567  1
  O  O93  1  0.50118400  0.15043200  0.91023800  1
  O  O94  1  0.16785067  0.68408533  0.74357133  1
  O  O95  1  0.80218733  0.99411967  0.81071567  1
  O  O96  1  0.53114600  0.67254700  0.85595100  1
  O  O97  1  0.16548267  0.98258133  0.92309533  1
  O  O98  1  0.83214933  0.51623467  0.75642867  1
  O  O99  1  0.32745300  0.85859900  0.85595100  1
  O  O100  1  0.68408533  0.16785067  0.75642867  1
  O  O101  1  0.51623467  0.83214933  0.74357133  1
  O  O102  1  0.48376533  0.31591467  0.75642867  1
  O  O103  1  0.19193233  0.19781267  0.81071567  1
  O  O104  1  0.31591467  0.48376533  0.74357133  1
  O  O105  1  0.86447933  0.52526567  0.02261767  1
  O  O106  1  0.66078633  0.13552067  0.02261767  1
  O  O107  1  0.47473433  0.33921367  0.02261767  1
