# generated using pymatgen
data_Mn3OF5
_symmetry_space_group_name_H-M   'P 1'
_cell_length_a   9.39804000
_cell_length_b   7.03875800
_cell_length_c   7.57960039
_cell_angle_alpha   90.00000000
_cell_angle_beta   110.95856647
_cell_angle_gamma   90.00000000
_symmetry_Int_Tables_number   1
_chemical_formula_structural   Mn3OF5
_chemical_formula_sum   'Mn12 O4 F20'
_cell_volume   468.22197934
_cell_formula_units_Z   4
loop_
 _symmetry_equiv_pos_site_id
 _symmetry_equiv_pos_as_xyz
  1  'x, y, z'
loop_
 _atom_site_type_symbol
 _atom_site_label
 _atom_site_symmetry_multiplicity
 _atom_site_fract_x
 _atom_site_fract_y
 _atom_site_fract_z
 _atom_site_occupancy
  Mn  Mn0  1  0.82120200  0.50000000  0.84817400  1
  Mn  Mn1  1  0.16718300  0.50000000  0.68259600  1
  Mn  Mn2  1  0.83281700  0.50000000  0.31740400  1
  Mn  Mn3  1  0.17879800  0.50000000  0.15182600  1
  Mn  Mn4  1  0.00000000  0.00000000  0.50000000  1
  Mn  Mn5  1  0.00000000  0.00000000  0.00000000  1
  Mn  Mn6  1  0.32120200  0.00000000  0.84817400  1
  Mn  Mn7  1  0.66718300  0.00000000  0.68259600  1
  Mn  Mn8  1  0.33281700  0.00000000  0.31740400  1
  Mn  Mn9  1  0.67879800  0.00000000  0.15182600  1
  Mn  Mn10  1  0.50000000  0.50000000  0.50000000  1
  Mn  Mn11  1  0.50000000  0.50000000  0.00000000  1
  O  O12  1  0.28600000  0.50000000  0.96421800  1
  O  O13  1  0.71400000  0.50000000  0.03578200  1
  O  O14  1  0.78600000  0.00000000  0.96421800  1
  O  O15  1  0.21400000  0.00000000  0.03578200  1
  F  F16  1  0.16648850  0.19980550  0.66376600  1
  F  F17  1  0.83351150  0.19980550  0.33623400  1
  F  F18  1  0.59277100  0.50000000  0.29084000  1
  F  F19  1  0.92489900  0.50000000  0.62543700  1
  F  F20  1  0.40722900  0.50000000  0.70916000  1
  F  F21  1  0.07510100  0.50000000  0.37456300  1
  F  F22  1  0.83351150  0.80019450  0.33623400  1
  F  F23  1  0.16648850  0.80019450  0.66376600  1
  F  F24  1  0.00000000  0.30643600  0.00000000  1
  F  F25  1  0.00000000  0.69356400  0.00000000  1
  F  F26  1  0.66648850  0.69980550  0.66376600  1
  F  F27  1  0.33351150  0.69980550  0.33623400  1
  F  F28  1  0.09277100  0.00000000  0.29084000  1
  F  F29  1  0.42489900  0.00000000  0.62543700  1
  F  F30  1  0.90722900  0.00000000  0.70916000  1
  F  F31  1  0.57510100  0.00000000  0.37456300  1
  F  F32  1  0.33351150  0.30019450  0.33623400  1
  F  F33  1  0.66648850  0.30019450  0.66376600  1
  F  F34  1  0.50000000  0.80643600  0.00000000  1
  F  F35  1  0.50000000  0.19356400  0.00000000  1
