# generated using pymatgen
data_Li5Fe7O3F13
_symmetry_space_group_name_H-M   'P 1'
_cell_length_a   6.20394600
_cell_length_b   6.21648691
_cell_length_c   10.70332799
_cell_angle_alpha   73.40803713
_cell_angle_beta   73.46011317
_cell_angle_gamma   60.05928760
_symmetry_Int_Tables_number   1
_chemical_formula_structural   Li5Fe7O3F13
_chemical_formula_sum   'Li5 Fe7 O3 F13'
_cell_volume   337.74828228
_cell_formula_units_Z   1
loop_
 _symmetry_equiv_pos_site_id
 _symmetry_equiv_pos_as_xyz
  1  'x, y, z'
loop_
 _atom_site_type_symbol
 _atom_site_label
 _atom_site_symmetry_multiplicity
 _atom_site_fract_x
 _atom_site_fract_y
 _atom_site_fract_z
 _atom_site_occupancy
  Li  Li0  1  0.51866800  0.24902600  0.24966300  1
  Li  Li1  1  0.10650200  0.80804900  0.56717200  1
  Li  Li2  1  0.88960100  0.19271300  0.43742000  1
  Li  Li3  1  0.99469200  0.24313200  0.74598400  1
  Li  Li4  1  0.86903100  0.67975400  0.93611100  1
  Fe  Fe5  1  0.08004000  0.31853800  0.07763900  1
  Fe  Fe6  1  0.50471500  0.99838100  0.00620400  1
  Fe  Fe7  1  0.01499300  0.74757900  0.24733200  1
  Fe  Fe8  1  0.50270600  0.75872800  0.24330200  1
  Fe  Fe9  1  0.51460200  0.50039200  0.50374200  1
  Fe  Fe10  1  0.50791400  0.74237100  0.74308900  1
  Fe  Fe11  1  0.51752500  0.26741200  0.74045100  1
  O  O12  1  0.24907400  0.64532500  0.13019800  1
  O  O13  1  0.70336600  0.09971000  0.13260500  1
  O  O14  1  0.71767600  0.60149700  0.62751200  1
  F  F15  1  0.25442800  0.89009800  0.37279800  1
  F  F16  1  0.24847700  0.12302600  0.12936900  1
  F  F17  1  0.75108000  0.37950700  0.37176800  1
  F  F18  1  0.74738900  0.61941100  0.13297100  1
  F  F19  1  0.76677400  0.86593400  0.36566700  1
  F  F20  1  0.29671900  0.40877800  0.37496300  1
  F  F21  1  0.23999800  0.13431200  0.63101100  1
  F  F22  1  0.23801800  0.36458500  0.86536100  1
  F  F23  1  0.24564800  0.61072600  0.63538300  1
  F  F24  1  0.74237200  0.87986900  0.86381700  1
  F  F25  1  0.74604000  0.11558900  0.63211500  1
  F  F26  1  0.28607600  0.90222300  0.86590300  1
  F  F27  1  0.74587800  0.35333500  0.87044800  1
