# generated using pymatgen
data_CrFe3Ni2(PO4)6
_symmetry_space_group_name_H-M   'P 1'
_cell_length_a   8.61386129
_cell_length_b   8.61386129
_cell_length_c   20.55095844
_cell_angle_alpha   90.00000000
_cell_angle_beta   90.00000000
_cell_angle_gamma   120.00000000
_symmetry_Int_Tables_number   1
_chemical_formula_structural   CrFe3Ni2(PO4)6
_chemical_formula_sum   'Cr3 Fe9 Ni6 P18 O72'
_cell_volume   1320.56097853
_cell_formula_units_Z   3
loop_
 _symmetry_equiv_pos_site_id
 _symmetry_equiv_pos_as_xyz
  1  'x, y, z'
loop_
 _atom_site_type_symbol
 _atom_site_label
 _atom_site_symmetry_multiplicity
 _atom_site_fract_x
 _atom_site_fract_y
 _atom_site_fract_z
 _atom_site_occupancy
  Cr  Cr0  1  0.33333333  0.66666667  0.52462867  1
  Cr  Cr1  1  0.00000000  0.00000000  0.85796200  1
  Cr  Cr2  1  0.66666667  0.33333333  0.19129533  1
  Fe  Fe3  1  0.33333333  0.66666667  0.81067267  1
  Fe  Fe4  1  0.33333333  0.66666667  0.02224567  1
  Fe  Fe5  1  0.33333333  0.66666667  0.31067267  1
  Fe  Fe6  1  0.00000000  0.00000000  0.14400600  1
  Fe  Fe7  1  0.00000000  0.00000000  0.35557900  1
  Fe  Fe8  1  0.00000000  0.00000000  0.64400600  1
  Fe  Fe9  1  0.66666667  0.33333333  0.47733933  1
  Fe  Fe10  1  0.66666667  0.33333333  0.68891233  1
  Fe  Fe11  1  0.66666667  0.33333333  0.97733933  1
  Ni  Ni12  1  0.33333333  0.66666667  0.66776267  1
  Ni  Ni13  1  0.33333333  0.66666667  0.16699667  1
  Ni  Ni14  1  0.00000000  0.00000000  0.00109600  1
  Ni  Ni15  1  0.00000000  0.00000000  0.50033000  1
  Ni  Ni16  1  0.66666667  0.33333333  0.33442933  1
  Ni  Ni17  1  0.66666667  0.33333333  0.83366333  1
  P  P18  1  0.96200000  0.62852700  0.08317100  1
  P  P19  1  0.37147300  0.33347300  0.08317100  1
  P  P20  1  0.66652700  0.03800000  0.08317100  1
  P  P21  1  0.99983300  0.29701100  0.24930200  1
  P  P22  1  0.29717800  0.00016700  0.24930200  1
  P  P23  1  0.70298900  0.70282200  0.24930200  1
  P  P24  1  0.62866667  0.96186033  0.41650433  1
  P  P25  1  0.03813967  0.66680633  0.41650433  1
  P  P26  1  0.33319367  0.37133333  0.41650433  1
  P  P27  1  0.66649967  0.63034433  0.58263533  1
  P  P28  1  0.96384467  0.33350033  0.58263533  1
  P  P29  1  0.36965567  0.03615533  0.58263533  1
  P  P30  1  0.29533333  0.29519367  0.74983767  1
  P  P31  1  0.70480633  0.00013967  0.74983767  1
  P  P32  1  0.99986033  0.70466667  0.74983767  1
  P  P33  1  0.33316633  0.96367767  0.91596867  1
  P  P34  1  0.63051133  0.66683367  0.91596867  1
  P  P35  1  0.03632233  0.36948867  0.91596867  1
  O  O36  1  0.13173700  0.46818100  0.97787000  1
  O  O37  1  0.33644400  0.86826300  0.97787000  1
  O  O38  1  0.98521333  0.81852067  0.07504667  1
  O  O39  1  0.53181900  0.66355600  0.97787000  1
  O  O40  1  0.52067600  0.86325800  0.47878600  1
  O  O41  1  0.14920400  0.64710400  0.09410100  1
  O  O42  1  0.18147933  0.16669267  0.07504667  1
  O  O43  1  0.35289600  0.50210000  0.09410100  1
  O  O44  1  0.98869033  0.19300867  0.18783867  1
  O  O45  1  0.49790000  0.85079600  0.09410100  1
  O  O46  1  0.82983433  0.32045567  0.25675267  1
  O  O47  1  0.20431833  0.01130967  0.18783867  1
  O  O48  1  0.13674200  0.65741800  0.47878600  1
  O  O49  1  0.83330733  0.01478667  0.07504667  1
  O  O50  1  0.16452800  0.48799200  0.24057300  1
  O  O51  1  0.34258200  0.47932400  0.47878600  1
  O  O52  1  0.32346400  0.83547200  0.24057300  1
  O  O53  1  0.49062133  0.17016567  0.25675267  1
  O  O54  1  0.51200800  0.67653600  0.24057300  1
  O  O55  1  0.80699133  0.79568167  0.18783867  1
  O  O56  1  0.14166633  0.67612967  0.35556667  1
  O  O57  1  0.67954433  0.50937867  0.25675267  1
  O  O58  1  0.32387033  0.46553667  0.35556667  1
  O  O59  1  0.53446333  0.85833367  0.35556667  1
  O  O60  1  0.79840367  0.80151433  0.31120333  1
  O  O61  1  0.00311067  0.20159633  0.31120333  1
  O  O62  1  0.65188000  0.15185400  0.40838000  1
  O  O63  1  0.19848567  0.99688933  0.31120333  1
  O  O64  1  0.18734267  0.19659133  0.81211933  1
  O  O65  1  0.81587067  0.98043733  0.42743433  1
  O  O66  1  0.84814600  0.50002600  0.40838000  1
  O  O67  1  0.01956267  0.83543333  0.42743433  1
  O  O68  1  0.65535700  0.52634200  0.52117200  1
  O  O69  1  0.16456667  0.18412933  0.42743433  1
  O  O70  1  0.49650100  0.65378900  0.59008600  1
  O  O71  1  0.87098500  0.34464300  0.52117200  1
  O  O72  1  0.80340867  0.99075133  0.81211933  1
  O  O73  1  0.49997400  0.34812000  0.40838000  1
  O  O74  1  0.83119467  0.82132533  0.57390633  1
  O  O75  1  0.00924867  0.81265733  0.81211933  1
  O  O76  1  0.99013067  0.16880533  0.57390633  1
  O  O77  1  0.15728800  0.50349900  0.59008600  1
  O  O78  1  0.17867467  0.00986933  0.57390633  1
  O  O79  1  0.47365800  0.12901500  0.52117200  1
  O  O80  1  0.80833300  0.00946300  0.68890000  1
  O  O81  1  0.34621100  0.84271200  0.59008600  1
  O  O82  1  0.99053700  0.79887000  0.68890000  1
  O  O83  1  0.20113000  0.19166700  0.68890000  1
  O  O84  1  0.46507033  0.13484767  0.64453667  1
  O  O85  1  0.66977733  0.53492967  0.64453667  1
  O  O86  1  0.31854667  0.48518733  0.74171333  1
  O  O87  1  0.86515233  0.33022267  0.64453667  1
  O  O88  1  0.85400933  0.52992467  0.14545267  1
  O  O89  1  0.48253733  0.31377067  0.76076767  1
  O  O90  1  0.51481267  0.83335933  0.74171333  1
  O  O91  1  0.68622933  0.16876667  0.76076767  1
  O  O92  1  0.32202367  0.85967533  0.85450533  1
  O  O93  1  0.83123333  0.51746267  0.76076767  1
  O  O94  1  0.16316767  0.98712233  0.92341933  1
  O  O95  1  0.53765167  0.67797633  0.85450533  1
  O  O96  1  0.47007533  0.32408467  0.14545267  1
  O  O97  1  0.16664067  0.68145333  0.74171333  1
  O  O98  1  0.49786133  0.15465867  0.90723967  1
  O  O99  1  0.67591533  0.14599067  0.14545267  1
  O  O100  1  0.65679733  0.50213867  0.90723967  1
  O  O101  1  0.82395467  0.83683233  0.92341933  1
  O  O102  1  0.84534133  0.34320267  0.90723967  1
  O  O103  1  0.14032467  0.46234833  0.85450533  1
  O  O104  1  0.47499967  0.34279633  0.02223333  1
  O  O105  1  0.01287767  0.17604533  0.92341933  1
  O  O106  1  0.65720367  0.13220333  0.02223333  1
  O  O107  1  0.86779667  0.52500033  0.02223333  1
