# generated using pymatgen
data_Li4Fe3Co3(TeO8)2
_symmetry_space_group_name_H-M   'P 1'
_cell_length_a   10.38566000
_cell_length_b   5.97423600
_cell_length_c   9.75046227
_cell_angle_alpha   90.00000000
_cell_angle_beta   90.64523342
_cell_angle_gamma   90.00000000
_symmetry_Int_Tables_number   1
_chemical_formula_structural   Li4Fe3Co3(TeO8)2
_chemical_formula_sum   'Li8 Fe6 Co6 Te4 O32'
_cell_volume   604.94256336
_cell_formula_units_Z   2
loop_
 _symmetry_equiv_pos_site_id
 _symmetry_equiv_pos_as_xyz
  1  'x, y, z'
loop_
 _atom_site_type_symbol
 _atom_site_label
 _atom_site_symmetry_multiplicity
 _atom_site_fract_x
 _atom_site_fract_y
 _atom_site_fract_z
 _atom_site_occupancy
  Li  Li0  1  0.66489600  0.00000000  0.08910100  1
  Li  Li1  1  0.50161100  0.50000000  0.01355800  1
  Li  Li2  1  0.50486000  0.50000000  0.51734300  1
  Li  Li3  1  0.83345200  0.50000000  0.58921300  1
  Li  Li4  1  0.16489600  0.50000000  0.08910100  1
  Li  Li5  1  0.00161100  0.00000000  0.01355800  1
  Li  Li6  1  0.00486000  0.00000000  0.51734300  1
  Li  Li7  1  0.33345200  0.00000000  0.58921300  1
  Fe  Fe8  1  0.82998000  0.00000000  0.78578100  1
  Fe  Fe9  1  0.91401850  0.25486250  0.28728400  1
  Fe  Fe10  1  0.91401850  0.74513750  0.28728400  1
  Fe  Fe11  1  0.32998000  0.50000000  0.78578100  1
  Fe  Fe12  1  0.41401850  0.75486250  0.28728400  1
  Fe  Fe13  1  0.41401850  0.24513750  0.28728400  1
  Co  Co14  1  0.58463800  0.75973700  0.78954000  1
  Co  Co15  1  0.58463800  0.24026300  0.78954000  1
  Co  Co16  1  0.67272800  0.50000000  0.28794900  1
  Co  Co17  1  0.08463800  0.25973700  0.78954000  1
  Co  Co18  1  0.08463800  0.74026300  0.78954000  1
  Co  Co19  1  0.17272800  0.00000000  0.28794900  1
  Te  Te20  1  0.66474000  0.00000000  0.51755000  1
  Te  Te21  1  0.83086000  0.50000000  0.01487100  1
  Te  Te22  1  0.16474000  0.50000000  0.51755000  1
  Te  Te23  1  0.33086000  0.00000000  0.01487100  1
  O  O24  1  0.58409300  0.75863100  0.41091000  1
  O  O25  1  0.51881300  0.00000000  0.64829900  1
  O  O26  1  0.66794100  0.00000000  0.88694700  1
  O  O27  1  0.50304300  0.50000000  0.70791100  1
  O  O28  1  0.99730800  0.00000000  0.20269000  1
  O  O29  1  0.58409300  0.24136900  0.41091000  1
  O  O30  1  0.74396450  0.78068550  0.64653800  1
  O  O31  1  0.74396450  0.21931450  0.64653800  1
  O  O32  1  0.66887400  0.50000000  0.90994200  1
  O  O33  1  0.82676400  0.00000000  0.40700500  1
  O  O34  1  0.76236350  0.27490250  0.14468800  1
  O  O35  1  0.76236350  0.72509750  0.14468800  1
  O  O36  1  0.84057800  0.50000000  0.39075600  1
  O  O37  1  0.91154100  0.25739600  0.90843500  1
  O  O38  1  0.98028600  0.50000000  0.14786200  1
  O  O39  1  0.91154100  0.74260400  0.90843500  1
  O  O40  1  0.08409300  0.25863100  0.41091000  1
  O  O41  1  0.01881300  0.50000000  0.64829900  1
  O  O42  1  0.16794100  0.50000000  0.88694700  1
  O  O43  1  0.00304300  0.00000000  0.70791100  1
  O  O44  1  0.49730800  0.50000000  0.20269000  1
  O  O45  1  0.08409300  0.74136900  0.41091000  1
  O  O46  1  0.24396450  0.28068550  0.64653800  1
  O  O47  1  0.24396450  0.71931450  0.64653800  1
  O  O48  1  0.16887400  0.00000000  0.90994200  1
  O  O49  1  0.32676400  0.50000000  0.40700500  1
  O  O50  1  0.26236350  0.77490250  0.14468800  1
  O  O51  1  0.26236350  0.22509750  0.14468800  1
  O  O52  1  0.34057800  0.00000000  0.39075600  1
  O  O53  1  0.41154100  0.75739600  0.90843500  1
  O  O54  1  0.48028600  0.00000000  0.14786200  1
  O  O55  1  0.41154100  0.24260400  0.90843500  1
