# generated using pymatgen
data_LiNi(PO3)4
_symmetry_space_group_name_H-M   'P 1'
_cell_length_a   7.26243200
_cell_length_b   8.76576100
_cell_length_c   7.63361481
_cell_angle_alpha   90.00000000
_cell_angle_beta   92.16316714
_cell_angle_gamma   90.00000000
_symmetry_Int_Tables_number   1
_chemical_formula_structural   LiNi(PO3)4
_chemical_formula_sum   'Li2 Ni2 P8 O24'
_cell_volume   485.61528969
_cell_formula_units_Z   2
loop_
 _symmetry_equiv_pos_site_id
 _symmetry_equiv_pos_as_xyz
  1  'x, y, z'
loop_
 _atom_site_type_symbol
 _atom_site_label
 _atom_site_symmetry_multiplicity
 _atom_site_fract_x
 _atom_site_fract_y
 _atom_site_fract_z
 _atom_site_occupancy
  Li  Li0  1  0.21761600  0.21286600  0.14913700  1
  Li  Li1  1  0.78238400  0.71286600  0.85086300  1
  Ni  Ni2  1  0.22638700  0.98113500  0.66658000  1
  Ni  Ni3  1  0.77361300  0.48113500  0.33342000  1
  P  P4  1  0.12208500  0.62189700  0.56909600  1
  P  P5  1  0.15085000  0.57872800  0.19543000  1
  P  P6  1  0.43225400  0.39303800  0.61939000  1
  P  P7  1  0.57804500  0.29654300  0.97055300  1
  P  P8  1  0.42195500  0.79654300  0.02944700  1
  P  P9  1  0.56774600  0.89303800  0.38061000  1
  P  P10  1  0.84915000  0.07872800  0.80457000  1
  P  P11  1  0.87791500  0.12189700  0.43090400  1
  O  O12  1  0.05581900  0.08557500  0.84085100  1
  O  O13  1  0.04871900  0.02556400  0.45175300  1
  O  O14  1  0.10485500  0.76749400  0.67112500  1
  O  O15  1  0.20359200  0.66155200  0.38038400  1
  O  O16  1  0.28841300  0.52761200  0.66577400  1
  O  O17  1  0.37095900  0.90212800  0.88081400  1
  O  O18  1  0.23990900  0.69637000  0.06391700  1
  O  O19  1  0.41390400  0.19593200  0.98967400  1
  O  O20  1  0.33036400  0.24502200  0.59921900  1
  O  O21  1  0.23751200  0.42486800  0.18823300  1
  O  O22  1  0.44849800  0.94694300  0.52475800  1
  O  O23  1  0.56303000  0.39945900  0.79585000  1
  O  O24  1  0.43697000  0.89945900  0.20415000  1
  O  O25  1  0.55150200  0.44694300  0.47524200  1
  O  O26  1  0.76248800  0.92486800  0.81176700  1
  O  O27  1  0.66963600  0.74502200  0.40078100  1
  O  O28  1  0.58609600  0.69593200  0.01032600  1
  O  O29  1  0.76009100  0.19637000  0.93608300  1
  O  O30  1  0.62904100  0.40212800  0.11918600  1
  O  O31  1  0.71158700  0.02761200  0.33422600  1
  O  O32  1  0.79640800  0.16155200  0.61961600  1
  O  O33  1  0.89514500  0.26749400  0.32887500  1
  O  O34  1  0.95128100  0.52556400  0.54824700  1
  O  O35  1  0.94418100  0.58557500  0.15914900  1
