# generated using pymatgen
data_Li7Mn(PO4)4
_symmetry_space_group_name_H-M   'P 1'
_cell_length_a   4.76276671
_cell_length_b   5.95103700
_cell_length_c   10.22078818
_cell_angle_alpha   90.00000000
_cell_angle_beta   90.17600344
_cell_angle_gamma   90.00000000
_symmetry_Int_Tables_number   1
_chemical_formula_structural   Li7Mn(PO4)4
_chemical_formula_sum   'Li7 Mn1 P4 O16'
_cell_volume   289.69053013
_cell_formula_units_Z   1
loop_
 _symmetry_equiv_pos_site_id
 _symmetry_equiv_pos_as_xyz
  1  'x, y, z'
loop_
 _atom_site_type_symbol
 _atom_site_label
 _atom_site_symmetry_multiplicity
 _atom_site_fract_x
 _atom_site_fract_y
 _atom_site_fract_z
 _atom_site_occupancy
  Li  Li0  1  0.98678600  0.26190500  0.01705000  1
  Li  Li1  1  0.98678600  0.73809500  0.01705000  1
  Li  Li2  1  0.47779800  0.00000000  0.22417300  1
  Li  Li3  1  0.49755100  0.73817700  0.48897800  1
  Li  Li4  1  0.49755100  0.26182300  0.48897800  1
  Li  Li5  1  0.52415200  0.50000000  0.77617300  1
  Li  Li6  1  0.97365400  0.50000000  0.28012100  1
  Mn  Mn7  1  0.00857900  0.00000000  0.72029600  1
  P  P8  1  0.06075800  0.50000000  0.59434300  1
  P  P9  1  0.42767200  0.50000000  0.09348400  1
  P  P10  1  0.58795300  0.00000000  0.89611500  1
  P  P11  1  0.93035200  0.00000000  0.41061800  1
  O  O12  1  0.20399100  0.50000000  0.46018100  1
  O  O13  1  0.19304100  0.28741300  0.66888900  1
  O  O14  1  0.19304100  0.71258700  0.66888900  1
  O  O15  1  0.25038600  0.00000000  0.41526500  1
  O  O16  1  0.26408800  0.00000000  0.88257100  1
  O  O17  1  0.29337400  0.29143300  0.16054400  1
  O  O18  1  0.29337400  0.70856700  0.16054400  1
  O  O19  1  0.30721200  0.50000000  0.95074600  1
  O  O20  1  0.68970900  0.00000000  0.03730100  1
  O  O21  1  0.73562200  0.79964400  0.82098800  1
  O  O22  1  0.73562200  0.20035600  0.82098800  1
  O  O23  1  0.74838200  0.50000000  0.09520600  1
  O  O24  1  0.74210600  0.50000000  0.59606800  1
  O  O25  1  0.79458700  0.79168800  0.34763600  1
  O  O26  1  0.79458700  0.20831200  0.34763600  1
  O  O27  1  0.80128500  0.00000000  0.55917000  1
