# generated using pymatgen
data_Li2Si3Ni3O10
_symmetry_space_group_name_H-M   'P 1'
_cell_length_a   15.65179600
_cell_length_b   4.77355600
_cell_length_c   10.22695143
_cell_angle_alpha   90.00000000
_cell_angle_beta   93.23445984
_cell_angle_gamma   90.00000000
_symmetry_Int_Tables_number   1
_chemical_formula_structural   Li2Si3Ni3O10
_chemical_formula_sum   'Li8 Si12 Ni12 O40'
_cell_volume   762.88665097
_cell_formula_units_Z   4
loop_
 _symmetry_equiv_pos_site_id
 _symmetry_equiv_pos_as_xyz
  1  'x, y, z'
loop_
 _atom_site_type_symbol
 _atom_site_label
 _atom_site_symmetry_multiplicity
 _atom_site_fract_x
 _atom_site_fract_y
 _atom_site_fract_z
 _atom_site_occupancy
  Li  Li0  1  0.55493400  0.28942400  0.97271900  1
  Li  Li1  1  0.55493400  0.71057600  0.47271900  1
  Li  Li2  1  0.94506600  0.78942400  0.52728100  1
  Li  Li3  1  0.94506600  0.21057600  0.02728100  1
  Li  Li4  1  0.05493400  0.78942400  0.97271900  1
  Li  Li5  1  0.05493400  0.21057600  0.47271900  1
  Li  Li6  1  0.44506600  0.28942400  0.52728100  1
  Li  Li7  1  0.44506600  0.71057600  0.02728100  1
  Si  Si8  1  0.65644050  0.81283250  0.90653300  1
  Si  Si9  1  0.65644050  0.18716750  0.40653300  1
  Si  Si10  1  0.84355950  0.31283250  0.59346700  1
  Si  Si11  1  0.84355950  0.68716750  0.09346700  1
  Si  Si12  1  0.00000000  0.18907500  0.75000000  1
  Si  Si13  1  0.00000000  0.81092500  0.25000000  1
  Si  Si14  1  0.15644050  0.31283250  0.90653300  1
  Si  Si15  1  0.15644050  0.68716750  0.40653300  1
  Si  Si16  1  0.34355950  0.81283250  0.59346700  1
  Si  Si17  1  0.34355950  0.18716750  0.09346700  1
  Si  Si18  1  0.50000000  0.68907500  0.75000000  1
  Si  Si19  1  0.50000000  0.31092500  0.25000000  1
  Ni  Ni20  1  0.65759000  0.27723500  0.71529600  1
  Ni  Ni21  1  0.65759000  0.72276500  0.21529600  1
  Ni  Ni22  1  0.75000000  0.25000000  0.00000000  1
  Ni  Ni23  1  0.75000000  0.75000000  0.50000000  1
  Ni  Ni24  1  0.84241000  0.77723500  0.78470400  1
  Ni  Ni25  1  0.84241000  0.22276500  0.28470400  1
  Ni  Ni26  1  0.15759000  0.77723500  0.71529600  1
  Ni  Ni27  1  0.15759000  0.22276500  0.21529600  1
  Ni  Ni28  1  0.25000000  0.75000000  0.00000000  1
  Ni  Ni29  1  0.25000000  0.25000000  0.50000000  1
  Ni  Ni30  1  0.34241000  0.27723500  0.78470400  1
  Ni  Ni31  1  0.34241000  0.72276500  0.28470400  1
  O  O32  1  0.54836050  0.50425350  0.64247400  1
  O  O33  1  0.56500250  0.92095250  0.83009500  1
  O  O34  1  0.54836050  0.49574650  0.14247400  1
  O  O35  1  0.56500250  0.07904750  0.33009500  1
  O  O36  1  0.65520900  0.47260100  0.89762400  1
  O  O37  1  0.65664950  0.04398450  0.55156000  1
  O  O38  1  0.65520900  0.52739900  0.39762400  1
  O  O39  1  0.65664950  0.95601550  0.05156000  1
  O  O40  1  0.73298650  0.98144450  0.83318200  1
  O  O41  1  0.73298650  0.01855550  0.33318200  1
  O  O42  1  0.76701350  0.48144450  0.66681800  1
  O  O43  1  0.76701350  0.51855550  0.16681800  1
  O  O44  1  0.84335050  0.54398450  0.94844000  1
  O  O45  1  0.84479100  0.97260100  0.60237600  1
  O  O46  1  0.84335050  0.45601550  0.44844000  1
  O  O47  1  0.84479100  0.02739900  0.10237600  1
  O  O48  1  0.93499750  0.42095250  0.66990500  1
  O  O49  1  0.95163950  0.00425350  0.85752600  1
  O  O50  1  0.93499750  0.57904750  0.16990500  1
  O  O51  1  0.95163950  0.99574650  0.35752600  1
  O  O52  1  0.04836050  0.00425350  0.64247400  1
  O  O53  1  0.06500250  0.42095250  0.83009500  1
  O  O54  1  0.04836050  0.99574650  0.14247400  1
  O  O55  1  0.06500250  0.57904750  0.33009500  1
  O  O56  1  0.15520900  0.97260100  0.89762400  1
  O  O57  1  0.15664950  0.54398450  0.55156000  1
  O  O58  1  0.15520900  0.02739900  0.39762400  1
  O  O59  1  0.15664950  0.45601550  0.05156000  1
  O  O60  1  0.23298650  0.48144450  0.83318200  1
  O  O61  1  0.23298650  0.51855550  0.33318200  1
  O  O62  1  0.26701350  0.98144450  0.66681800  1
  O  O63  1  0.26701350  0.01855550  0.16681800  1
  O  O64  1  0.34335050  0.04398450  0.94844000  1
  O  O65  1  0.34479100  0.47260100  0.60237600  1
  O  O66  1  0.34335050  0.95601550  0.44844000  1
  O  O67  1  0.34479100  0.52739900  0.10237600  1
  O  O68  1  0.43499750  0.92095250  0.66990500  1
  O  O69  1  0.45163950  0.50425350  0.85752600  1
  O  O70  1  0.43499750  0.07904750  0.16990500  1
  O  O71  1  0.45163950  0.49574650  0.35752600  1
