# generated using pymatgen
data_Na2CoO3
_symmetry_space_group_name_H-M   'P 1'
_cell_length_a   5.61216200
_cell_length_b   10.44257400
_cell_length_c   11.29524300
_cell_angle_alpha   90.00000000
_cell_angle_beta   90.00000000
_cell_angle_gamma   90.00000000
_symmetry_Int_Tables_number   1
_chemical_formula_structural   Na2CoO3
_chemical_formula_sum   'Na16 Co8 O24'
_cell_volume   661.96242596
_cell_formula_units_Z   8
loop_
 _symmetry_equiv_pos_site_id
 _symmetry_equiv_pos_as_xyz
  1  'x, y, z'
loop_
 _atom_site_type_symbol
 _atom_site_label
 _atom_site_symmetry_multiplicity
 _atom_site_fract_x
 _atom_site_fract_y
 _atom_site_fract_z
 _atom_site_occupancy
  Na  Na0  1  0.00000000  0.53632500  0.64495000  1
  Na  Na1  1  0.00000000  0.86636000  0.57854700  1
  Na  Na2  1  0.00000000  0.63364000  0.07854700  1
  Na  Na3  1  0.00000000  0.96367500  0.14495000  1
  Na  Na4  1  0.50000000  0.53632500  0.85505000  1
  Na  Na5  1  0.50000000  0.86636000  0.92145300  1
  Na  Na6  1  0.50000000  0.96367500  0.35505000  1
  Na  Na7  1  0.50000000  0.63364000  0.42145300  1
  Na  Na8  1  0.50000000  0.03632500  0.64495000  1
  Na  Na9  1  0.50000000  0.36636000  0.57854700  1
  Na  Na10  1  0.50000000  0.13364000  0.07854700  1
  Na  Na11  1  0.50000000  0.46367500  0.14495000  1
  Na  Na12  1  0.00000000  0.03632500  0.85505000  1
  Na  Na13  1  0.00000000  0.36636000  0.92145300  1
  Na  Na14  1  0.00000000  0.46367500  0.35505000  1
  Na  Na15  1  0.00000000  0.13364000  0.42145300  1
  Co  Co16  1  0.00000000  0.74519100  0.84109500  1
  Co  Co17  1  0.00000000  0.75480900  0.34109500  1
  Co  Co18  1  0.50000000  0.74519100  0.65890500  1
  Co  Co19  1  0.50000000  0.75480900  0.15890500  1
  Co  Co20  1  0.50000000  0.24519100  0.84109500  1
  Co  Co21  1  0.50000000  0.25480900  0.34109500  1
  Co  Co22  1  0.00000000  0.24519100  0.65890500  1
  Co  Co23  1  0.00000000  0.25480900  0.15890500  1
  O  O24  1  0.75000000  0.80673300  0.75000000  1
  O  O25  1  0.00000000  0.83746600  0.97132200  1
  O  O26  1  0.00000000  0.57915000  0.86106300  1
  O  O27  1  0.00000000  0.66253400  0.47132200  1
  O  O28  1  0.00000000  0.92085000  0.36106300  1
  O  O29  1  0.25000000  0.80673300  0.75000000  1
  O  O30  1  0.25000000  0.69326700  0.25000000  1
  O  O31  1  0.50000000  0.83746600  0.52867800  1
  O  O32  1  0.50000000  0.92085000  0.13893700  1
  O  O33  1  0.50000000  0.57915000  0.63893700  1
  O  O34  1  0.50000000  0.66253400  0.02867800  1
  O  O35  1  0.75000000  0.69326700  0.25000000  1
  O  O36  1  0.25000000  0.30673300  0.75000000  1
  O  O37  1  0.50000000  0.33746600  0.97132200  1
  O  O38  1  0.50000000  0.07915000  0.86106300  1
  O  O39  1  0.50000000  0.16253400  0.47132200  1
  O  O40  1  0.50000000  0.42085000  0.36106300  1
  O  O41  1  0.75000000  0.30673300  0.75000000  1
  O  O42  1  0.75000000  0.19326700  0.25000000  1
  O  O43  1  0.00000000  0.33746600  0.52867800  1
  O  O44  1  0.00000000  0.42085000  0.13893700  1
  O  O45  1  0.00000000  0.07915000  0.63893700  1
  O  O46  1  0.00000000  0.16253400  0.02867800  1
  O  O47  1  0.25000000  0.19326700  0.25000000  1
