# generated using pymatgen
data_Ca6Sn5S16
_symmetry_space_group_name_H-M   'P 1'
_cell_length_a   5.00236000
_cell_length_b   5.00236000
_cell_length_c   53.23855800
_cell_angle_alpha   90.00000000
_cell_angle_beta   90.00000000
_cell_angle_gamma   90.00000000
_symmetry_Int_Tables_number   1
_chemical_formula_structural   Ca6Sn5S16
_chemical_formula_sum   'Ca12 Sn10 S32'
_cell_volume   1332.22067649
_cell_formula_units_Z   2
loop_
 _symmetry_equiv_pos_site_id
 _symmetry_equiv_pos_as_xyz
  1  'x, y, z'
loop_
 _atom_site_type_symbol
 _atom_site_label
 _atom_site_symmetry_multiplicity
 _atom_site_fract_x
 _atom_site_fract_y
 _atom_site_fract_z
 _atom_site_occupancy
  Ca  Ca0  1  0.50000000  0.50000000  0.04573000  1
  Ca  Ca1  1  0.00000000  0.00000000  0.45427000  1
  Ca  Ca2  1  0.50000000  0.50000000  0.13184600  1
  Ca  Ca3  1  0.00000000  0.00000000  0.36815400  1
  Ca  Ca4  1  0.50000000  0.50000000  0.21316100  1
  Ca  Ca5  1  0.00000000  0.00000000  0.28683900  1
  Ca  Ca6  1  0.00000000  0.00000000  0.54573000  1
  Ca  Ca7  1  0.50000000  0.50000000  0.95427000  1
  Ca  Ca8  1  0.00000000  0.00000000  0.63184600  1
  Ca  Ca9  1  0.50000000  0.50000000  0.86815400  1
  Ca  Ca10  1  0.00000000  0.00000000  0.71316100  1
  Ca  Ca11  1  0.50000000  0.50000000  0.78683900  1
  Sn  Sn12  1  0.00000000  0.00000000  0.00000000  1
  Sn  Sn13  1  0.00000000  0.00000000  0.09447400  1
  Sn  Sn14  1  0.50000000  0.50000000  0.40552600  1
  Sn  Sn15  1  0.00000000  0.00000000  0.19087900  1
  Sn  Sn16  1  0.50000000  0.50000000  0.30912100  1
  Sn  Sn17  1  0.50000000  0.50000000  0.50000000  1
  Sn  Sn18  1  0.50000000  0.50000000  0.59447400  1
  Sn  Sn19  1  0.00000000  0.00000000  0.90552600  1
  Sn  Sn20  1  0.50000000  0.50000000  0.69087900  1
  Sn  Sn21  1  0.00000000  0.00000000  0.80912100  1
  S  S22  1  0.00000000  0.00000000  0.04653600  1
  S  S23  1  0.50000000  0.50000000  0.45346400  1
  S  S24  1  0.00000000  0.00000000  0.13986800  1
  S  S25  1  0.50000000  0.50000000  0.36013200  1
  S  S26  1  0.00000000  0.00000000  0.23531700  1
  S  S27  1  0.50000000  0.50000000  0.26468300  1
  S  S28  1  0.00000000  0.50000000  0.18026300  1
  S  S29  1  0.00000000  0.50000000  0.31973700  1
  S  S30  1  0.50000000  0.00000000  0.31973700  1
  S  S31  1  0.50000000  0.00000000  0.18026300  1
  S  S32  1  0.00000000  0.50000000  0.08995700  1
  S  S33  1  0.00000000  0.50000000  0.41004300  1
  S  S34  1  0.50000000  0.00000000  0.41004300  1
  S  S35  1  0.50000000  0.00000000  0.08995700  1
  S  S36  1  0.00000000  0.50000000  0.00000000  1
  S  S37  1  0.50000000  0.00000000  0.00000000  1
  S  S38  1  0.50000000  0.50000000  0.54653600  1
  S  S39  1  0.00000000  0.00000000  0.95346400  1
  S  S40  1  0.50000000  0.50000000  0.63986800  1
  S  S41  1  0.00000000  0.00000000  0.86013200  1
  S  S42  1  0.50000000  0.50000000  0.73531700  1
  S  S43  1  0.00000000  0.00000000  0.76468300  1
  S  S44  1  0.50000000  0.00000000  0.68026300  1
  S  S45  1  0.50000000  0.00000000  0.81973700  1
  S  S46  1  0.00000000  0.50000000  0.81973700  1
  S  S47  1  0.00000000  0.50000000  0.68026300  1
  S  S48  1  0.50000000  0.00000000  0.58995700  1
  S  S49  1  0.50000000  0.00000000  0.91004300  1
  S  S50  1  0.00000000  0.50000000  0.91004300  1
  S  S51  1  0.00000000  0.50000000  0.58995700  1
  S  S52  1  0.50000000  0.00000000  0.50000000  1
  S  S53  1  0.00000000  0.50000000  0.50000000  1
