# generated using pymatgen
data_Li9V5(Si5O16)2
_symmetry_space_group_name_H-M   'P 1'
_cell_length_a   11.49258800
_cell_length_b   11.30313400
_cell_length_c   8.11086187
_cell_angle_alpha   90.00000000
_cell_angle_beta   91.76012290
_cell_angle_gamma   90.00000000
_symmetry_Int_Tables_number   1
_chemical_formula_structural   Li9V5(Si5O16)2
_chemical_formula_sum   'Li18 V10 Si20 O64'
_cell_volume   1053.12218600
_cell_formula_units_Z   2
loop_
 _symmetry_equiv_pos_site_id
 _symmetry_equiv_pos_as_xyz
  1  'x, y, z'
loop_
 _atom_site_type_symbol
 _atom_site_label
 _atom_site_symmetry_multiplicity
 _atom_site_fract_x
 _atom_site_fract_y
 _atom_site_fract_z
 _atom_site_occupancy
  Li  Li0  1  0.88015150  0.62655650  0.63361000  1
  Li  Li1  1  0.11984850  0.62655650  0.36639000  1
  Li  Li2  1  0.12110150  0.12498650  0.37665900  1
  Li  Li3  1  0.12330800  0.37854700  0.11720000  1
  Li  Li4  1  0.12572100  0.86764100  0.12228000  1
  Li  Li5  1  0.00000000  0.62451000  0.00000000  1
  Li  Li6  1  0.87427900  0.86764100  0.87772000  1
  Li  Li7  1  0.87669200  0.37854700  0.88280000  1
  Li  Li8  1  0.87889850  0.12498650  0.62334100  1
  Li  Li9  1  0.38015150  0.12655650  0.63361000  1
  Li  Li10  1  0.61984850  0.12655650  0.36639000  1
  Li  Li11  1  0.62110150  0.62498650  0.37665900  1
  Li  Li12  1  0.62330800  0.87854700  0.11720000  1
  Li  Li13  1  0.62572100  0.36764100  0.12228000  1
  Li  Li14  1  0.50000000  0.12451000  0.00000000  1
  Li  Li15  1  0.37427900  0.36764100  0.87772000  1
  Li  Li16  1  0.37669200  0.87854700  0.88280000  1
  Li  Li17  1  0.37889850  0.62498650  0.62334100  1
  V  V18  1  0.75304350  0.38109650  0.51018200  1
  V  V19  1  0.00000000  0.87189900  0.50000000  1
  V  V20  1  0.24695650  0.38109650  0.48981800  1
  V  V21  1  0.87655650  0.25300750  0.24768200  1
  V  V22  1  0.12344350  0.25300750  0.75231800  1
  V  V23  1  0.25304350  0.88109650  0.51018200  1
  V  V24  1  0.50000000  0.37189900  0.50000000  1
  V  V25  1  0.74695650  0.88109650  0.48981800  1
  V  V26  1  0.37655650  0.75300750  0.24768200  1
  V  V27  1  0.62344350  0.75300750  0.75231800  1
  Si  Si28  1  0.00000000  0.38847900  0.50000000  1
  Si  Si29  1  0.87677200  0.50779100  0.24920000  1
  Si  Si30  1  0.87115550  0.74857350  0.23681500  1
  Si  Si31  1  0.37406800  0.49310700  0.23294300  1
  Si  Si32  1  0.75064650  0.61898450  0.00882500  1
  Si  Si33  1  0.00000000  0.11606100  0.00000000  1
  Si  Si34  1  0.24935350  0.61898450  0.99117500  1
  Si  Si35  1  0.62593200  0.49310700  0.76705700  1
  Si  Si36  1  0.12884450  0.74857350  0.76318500  1
  Si  Si37  1  0.12322800  0.50779100  0.75080000  1
  Si  Si38  1  0.50000000  0.88847900  0.50000000  1
  Si  Si39  1  0.37677200  0.00779100  0.24920000  1
  Si  Si40  1  0.37115550  0.24857350  0.23681500  1
  Si  Si41  1  0.87406800  0.99310700  0.23294300  1
  Si  Si42  1  0.25064650  0.11898450  0.00882500  1
  Si  Si43  1  0.50000000  0.61606100  0.00000000  1
  Si  Si44  1  0.74935350  0.11898450  0.99117500  1
  Si  Si45  1  0.12593200  0.99310700  0.76705700  1
  Si  Si46  1  0.62884450  0.24857350  0.76318500  1
  Si  Si47  1  0.62322800  0.00779100  0.75080000  1
  O  O48  1  0.62341650  0.49784550  0.54644700  1
  O  O49  1  0.11585750  0.49657250  0.52118000  1
  O  O50  1  0.10803650  0.27256150  0.50576600  1
  O  O51  1  0.86825600  0.75812800  0.46380900  1
  O  O52  1  0.13174400  0.75812800  0.53619100  1
  O  O53  1  0.89196350  0.27256150  0.49423400  1
  O  O54  1  0.88414250  0.49657250  0.47882000  1
  O  O55  1  0.37658350  0.49784550  0.45355300  1
  O  O56  1  0.76877050  0.38877450  0.25929800  1
  O  O57  1  0.26949000  0.37500700  0.23815000  1
  O  O58  1  0.97619150  0.86908250  0.23959600  1
  O  O59  1  0.98752950  0.10612750  0.22214600  1
  O  O60  1  0.99070250  0.39671950  0.27299800  1
  O  O61  1  0.97099400  0.63168300  0.24910000  1
  O  O62  1  0.75974450  0.62523250  0.23726500  1
  O  O63  1  0.26246450  0.60844950  0.21208400  1
  O  O64  1  0.85751550  0.50875650  0.03311600  1
  O  O65  1  0.37767200  0.51002500  0.00717700  1
  O  O66  1  0.88246500  0.22129200  0.99685500  1
  O  O67  1  0.15043650  0.73555850  0.97985600  1
  O  O68  1  0.84956350  0.73555850  0.02014400  1
  O  O69  1  0.11753500  0.22129200  0.00314500  1
  O  O70  1  0.62232800  0.51002500  0.99282300  1
  O  O71  1  0.14248450  0.50875650  0.96688400  1
  O  O72  1  0.73753550  0.60844950  0.78791600  1
  O  O73  1  0.24025550  0.62523250  0.76273500  1
  O  O74  1  0.02900600  0.63168300  0.75090000  1
  O  O75  1  0.00929750  0.39671950  0.72700200  1
  O  O76  1  0.01247050  0.10612750  0.77785400  1
  O  O77  1  0.02380850  0.86908250  0.76040400  1
  O  O78  1  0.73051000  0.37500700  0.76185000  1
  O  O79  1  0.23122950  0.38877450  0.74070200  1
  O  O80  1  0.12341650  0.99784550  0.54644700  1
  O  O81  1  0.61585750  0.99657250  0.52118000  1
  O  O82  1  0.60803650  0.77256150  0.50576600  1
  O  O83  1  0.36825600  0.25812800  0.46380900  1
  O  O84  1  0.63174400  0.25812800  0.53619100  1
  O  O85  1  0.39196350  0.77256150  0.49423400  1
  O  O86  1  0.38414250  0.99657250  0.47882000  1
  O  O87  1  0.87658350  0.99784550  0.45355300  1
  O  O88  1  0.26877050  0.88877450  0.25929800  1
  O  O89  1  0.76949000  0.87500700  0.23815000  1
  O  O90  1  0.47619150  0.36908250  0.23959600  1
  O  O91  1  0.48752950  0.60612750  0.22214600  1
  O  O92  1  0.49070250  0.89671950  0.27299800  1
  O  O93  1  0.47099400  0.13168300  0.24910000  1
  O  O94  1  0.25974450  0.12523250  0.23726500  1
  O  O95  1  0.76246450  0.10844950  0.21208400  1
  O  O96  1  0.35751550  0.00875650  0.03311600  1
  O  O97  1  0.87767200  0.01002500  0.00717700  1
  O  O98  1  0.38246500  0.72129200  0.99685500  1
  O  O99  1  0.65043650  0.23555850  0.97985600  1
  O  O100  1  0.34956350  0.23555850  0.02014400  1
  O  O101  1  0.61753500  0.72129200  0.00314500  1
  O  O102  1  0.12232800  0.01002500  0.99282300  1
  O  O103  1  0.64248450  0.00875650  0.96688400  1
  O  O104  1  0.23753550  0.10844950  0.78791600  1
  O  O105  1  0.74025550  0.12523250  0.76273500  1
  O  O106  1  0.52900600  0.13168300  0.75090000  1
  O  O107  1  0.50929750  0.89671950  0.72700200  1
  O  O108  1  0.51247050  0.60612750  0.77785400  1
  O  O109  1  0.52380850  0.36908250  0.76040400  1
  O  O110  1  0.23051000  0.87500700  0.76185000  1
  O  O111  1  0.73122950  0.88877450  0.74070200  1
