# generated using pymatgen
data_LiMnPO4
_symmetry_space_group_name_H-M   'P 1'
_cell_length_a   8.59759196
_cell_length_b   8.59759196
_cell_length_c   7.48912000
_cell_angle_alpha   90.00000000
_cell_angle_beta   90.00000000
_cell_angle_gamma   120.00000000
_symmetry_Int_Tables_number   1
_chemical_formula_structural   LiMnPO4
_chemical_formula_sum   'Li6 Mn6 P6 O24'
_cell_volume   479.41882263
_cell_formula_units_Z   6
loop_
 _symmetry_equiv_pos_site_id
 _symmetry_equiv_pos_as_xyz
  1  'x, y, z'
loop_
 _atom_site_type_symbol
 _atom_site_label
 _atom_site_symmetry_multiplicity
 _atom_site_fract_x
 _atom_site_fract_y
 _atom_site_fract_z
 _atom_site_occupancy
  Li  Li0  1  0.67956700  0.66333400  0.91391000  1
  Li  Li1  1  0.33666600  0.01623300  0.91391000  1
  Li  Li2  1  0.98376700  0.32043300  0.91391000  1
  Li  Li3  1  0.01623300  0.67956700  0.41391000  1
  Li  Li4  1  0.66333400  0.98376700  0.41391000  1
  Li  Li5  1  0.32043300  0.33666600  0.41391000  1
  Mn  Mn6  1  0.66666667  0.33333333  0.77454300  1
  Mn  Mn7  1  0.66666667  0.33333333  0.19872600  1
  Mn  Mn8  1  0.00000000  0.00000000  0.69344000  1
  Mn  Mn9  1  0.00000000  0.00000000  0.19344000  1
  Mn  Mn10  1  0.33333333  0.66666667  0.27454300  1
  Mn  Mn11  1  0.33333333  0.66666667  0.69872600  1
  P  P12  1  0.68469400  0.65108800  0.50022200  1
  P  P13  1  0.34891200  0.03360600  0.50022200  1
  P  P14  1  0.96639400  0.31530600  0.50022200  1
  P  P15  1  0.03360600  0.68469400  0.00022200  1
  P  P16  1  0.65108800  0.96639400  0.00022200  1
  P  P17  1  0.31530600  0.34891200  0.00022200  1
  O  O18  1  0.93111200  0.79256100  0.99346200  1
  O  O19  1  0.72754800  0.59131900  0.67986500  1
  O  O20  1  0.75098400  0.57778200  0.34710500  1
  O  O21  1  0.52034900  0.41262600  0.98816900  1
  O  O22  1  0.89227700  0.47965100  0.98816900  1
  O  O23  1  0.20743900  0.13855100  0.99346200  1
  O  O24  1  0.42221800  0.17320200  0.34710500  1
  O  O25  1  0.40868100  0.13622900  0.67986500  1
  O  O26  1  0.13855100  0.93111200  0.49346200  1
  O  O27  1  0.86377100  0.27245200  0.67986500  1
  O  O28  1  0.82679800  0.24901600  0.34710500  1
  O  O29  1  0.58737400  0.10772300  0.98816900  1
  O  O30  1  0.41262600  0.89227700  0.48816900  1
  O  O31  1  0.17320200  0.75098400  0.84710500  1
  O  O32  1  0.13622900  0.72754800  0.17986500  1
  O  O33  1  0.86144900  0.06888800  0.99346200  1
  O  O34  1  0.59131900  0.86377100  0.17986500  1
  O  O35  1  0.57778200  0.82679800  0.84710500  1
  O  O36  1  0.79256100  0.86144900  0.49346200  1
  O  O37  1  0.10772300  0.52034900  0.48816900  1
  O  O38  1  0.47965100  0.58737400  0.48816900  1
  O  O39  1  0.24901600  0.42221800  0.84710500  1
  O  O40  1  0.27245200  0.40868100  0.17986500  1
  O  O41  1  0.06888800  0.20743900  0.49346200  1
