# generated using pymatgen
data_Li2CoOF3
_symmetry_space_group_name_H-M   'P 1'
_cell_length_a   9.78538000
_cell_length_b   5.90107400
_cell_length_c   5.16196676
_cell_angle_alpha   90.00000000
_cell_angle_beta   91.66475283
_cell_angle_gamma   90.00000000
_symmetry_Int_Tables_number   1
_chemical_formula_structural   Li2CoOF3
_chemical_formula_sum   'Li8 Co4 O4 F12'
_cell_volume   297.94809595
_cell_formula_units_Z   4
loop_
 _symmetry_equiv_pos_site_id
 _symmetry_equiv_pos_as_xyz
  1  'x, y, z'
loop_
 _atom_site_type_symbol
 _atom_site_label
 _atom_site_symmetry_multiplicity
 _atom_site_fract_x
 _atom_site_fract_y
 _atom_site_fract_z
 _atom_site_occupancy
  Li  Li0  1  0.18984550  0.15267950  0.50586500  1
  Li  Li1  1  0.20523900  0.86197800  0.02653000  1
  Li  Li2  1  0.81015450  0.15267950  0.49413500  1
  Li  Li3  1  0.79476100  0.86197800  0.97347000  1
  Li  Li4  1  0.68984550  0.65267950  0.50586500  1
  Li  Li5  1  0.70523900  0.36197800  0.02653000  1
  Li  Li6  1  0.31015450  0.65267950  0.49413500  1
  Li  Li7  1  0.29476100  0.36197800  0.97347000  1
  Co  Co8  1  0.50000000  0.11901700  0.50000000  1
  Co  Co9  1  0.50000000  0.85316000  0.00000000  1
  Co  Co10  1  0.00000000  0.61901700  0.50000000  1
  Co  Co11  1  0.00000000  0.35316000  0.00000000  1
  O  O12  1  0.40162000  0.89587000  0.69712000  1
  O  O13  1  0.59838000  0.89587000  0.30288000  1
  O  O14  1  0.90162000  0.39587000  0.69712000  1
  O  O15  1  0.09838000  0.39587000  0.30288000  1
  F  F16  1  0.36399750  0.35125350  0.62109800  1
  F  F17  1  0.85806100  0.13638500  0.13429500  1
  F  F18  1  0.37056050  0.11574650  0.19513600  1
  F  F19  1  0.62943950  0.11574650  0.80486400  1
  F  F20  1  0.63600250  0.35125350  0.37890200  1
  F  F21  1  0.14193900  0.13638500  0.86570500  1
  F  F22  1  0.86399750  0.85125350  0.62109800  1
  F  F23  1  0.35806100  0.63638500  0.13429500  1
  F  F24  1  0.87056050  0.61574650  0.19513600  1
  F  F25  1  0.12943950  0.61574650  0.80486400  1
  F  F26  1  0.13600250  0.85125350  0.37890200  1
  F  F27  1  0.64193900  0.63638500  0.86570500  1
