# generated using pymatgen
data_Mn3Nb2Co3O16
_symmetry_space_group_name_H-M   'P 1'
_cell_length_a   9.96373200
_cell_length_b   5.77383800
_cell_length_c   9.32594657
_cell_angle_alpha   90.00000000
_cell_angle_beta   91.00217391
_cell_angle_gamma   90.00000000
_symmetry_Int_Tables_number   1
_chemical_formula_structural   Mn3Nb2Co3O16
_chemical_formula_sum   'Mn6 Nb4 Co6 O32'
_cell_volume   536.43007278
_cell_formula_units_Z   2
loop_
 _symmetry_equiv_pos_site_id
 _symmetry_equiv_pos_as_xyz
  1  'x, y, z'
loop_
 _atom_site_type_symbol
 _atom_site_label
 _atom_site_symmetry_multiplicity
 _atom_site_fract_x
 _atom_site_fract_y
 _atom_site_fract_z
 _atom_site_occupancy
  Mn  Mn0  1  0.82969400  0.00000000  0.21475600  1
  Mn  Mn1  1  0.41397350  0.24999050  0.71564800  1
  Mn  Mn2  1  0.41397350  0.75000950  0.71564800  1
  Mn  Mn3  1  0.32969400  0.50000000  0.21475600  1
  Mn  Mn4  1  0.91397350  0.74999050  0.71564800  1
  Mn  Mn5  1  0.91397350  0.25000950  0.71564800  1
  Nb  Nb6  1  0.65817900  0.00000000  0.49683700  1
  Nb  Nb7  1  0.32467800  0.00000000  0.99895500  1
  Nb  Nb8  1  0.15817900  0.50000000  0.49683700  1
  Nb  Nb9  1  0.82467800  0.50000000  0.99895500  1
  Co  Co10  1  0.58283650  0.24905950  0.21510600  1
  Co  Co11  1  0.58283650  0.75094050  0.21510600  1
  Co  Co12  1  0.16716000  0.00000000  0.71324000  1
  Co  Co13  1  0.08283650  0.74905950  0.21510600  1
  Co  Co14  1  0.08283650  0.25094050  0.21510600  1
  Co  Co15  1  0.66716000  0.50000000  0.71324000  1
  O  O16  1  0.58086650  0.25622050  0.59948400  1
  O  O17  1  0.51775000  0.00000000  0.32913900  1
  O  O18  1  0.65999500  0.00000000  0.11245500  1
  O  O19  1  0.00364300  0.00000000  0.30921500  1
  O  O20  1  0.99990500  0.00000000  0.81394000  1
  O  O21  1  0.58086650  0.74377950  0.59948400  1
  O  O22  1  0.73881550  0.22606950  0.33085800  1
  O  O23  1  0.73881550  0.77393050  0.33085800  1
  O  O24  1  0.16139400  0.00000000  0.10241800  1
  O  O25  1  0.83283200  0.00000000  0.59744100  1
  O  O26  1  0.25848700  0.22448200  0.83191800  1
  O  O27  1  0.25848700  0.77551800  0.83191800  1
  O  O28  1  0.33123800  0.00000000  0.60894100  1
  O  O29  1  0.41556000  0.25408900  0.09999500  1
  O  O30  1  0.48201900  0.00000000  0.83298400  1
  O  O31  1  0.41556000  0.74591100  0.09999500  1
  O  O32  1  0.08086650  0.75622050  0.59948400  1
  O  O33  1  0.01775000  0.50000000  0.32913900  1
  O  O34  1  0.15999500  0.50000000  0.11245500  1
  O  O35  1  0.50364300  0.50000000  0.30921500  1
  O  O36  1  0.49990500  0.50000000  0.81394000  1
  O  O37  1  0.08086650  0.24377950  0.59948400  1
  O  O38  1  0.23881550  0.72606950  0.33085800  1
  O  O39  1  0.23881550  0.27393050  0.33085800  1
  O  O40  1  0.66139400  0.50000000  0.10241800  1
  O  O41  1  0.33283200  0.50000000  0.59744100  1
  O  O42  1  0.75848700  0.72448200  0.83191800  1
  O  O43  1  0.75848700  0.27551800  0.83191800  1
  O  O44  1  0.83123800  0.50000000  0.60894100  1
  O  O45  1  0.91556000  0.75408900  0.09999500  1
  O  O46  1  0.98201900  0.50000000  0.83298400  1
  O  O47  1  0.91556000  0.24591100  0.09999500  1
