# generated using pymatgen
data_Mn2OF3
_symmetry_space_group_name_H-M   'P 1'
_cell_length_a   6.75042600
_cell_length_b   7.05043400
_cell_length_c   15.85286400
_cell_angle_alpha   90.00000000
_cell_angle_beta   90.00000000
_cell_angle_gamma   90.00000000
_symmetry_Int_Tables_number   1
_chemical_formula_structural   Mn2OF3
_chemical_formula_sum   'Mn20 O10 F30'
_cell_volume   754.49222040
_cell_formula_units_Z   10
loop_
 _symmetry_equiv_pos_site_id
 _symmetry_equiv_pos_as_xyz
  1  'x, y, z'
loop_
 _atom_site_type_symbol
 _atom_site_label
 _atom_site_symmetry_multiplicity
 _atom_site_fract_x
 _atom_site_fract_y
 _atom_site_fract_z
 _atom_site_occupancy
  Mn  Mn0  1  0.96200700  0.00000000  0.19948500  1
  Mn  Mn1  1  0.03605400  0.00000000  0.00000000  1
  Mn  Mn2  1  0.96200700  0.00000000  0.80051500  1
  Mn  Mn3  1  0.02688100  0.00000000  0.39983300  1
  Mn  Mn4  1  0.02688100  0.00000000  0.60016700  1
  Mn  Mn5  1  0.49313500  0.00000000  0.30029600  1
  Mn  Mn6  1  0.50017300  0.00000000  0.90001500  1
  Mn  Mn7  1  0.50017300  0.00000000  0.09998500  1
  Mn  Mn8  1  0.49313500  0.00000000  0.69970400  1
  Mn  Mn9  1  0.49774500  0.00000000  0.50000000  1
  Mn  Mn10  1  0.46200700  0.50000000  0.19948500  1
  Mn  Mn11  1  0.53605400  0.50000000  0.00000000  1
  Mn  Mn12  1  0.46200700  0.50000000  0.80051500  1
  Mn  Mn13  1  0.52688100  0.50000000  0.39983300  1
  Mn  Mn14  1  0.52688100  0.50000000  0.60016700  1
  Mn  Mn15  1  0.99313500  0.50000000  0.30029600  1
  Mn  Mn16  1  0.00017300  0.50000000  0.90001500  1
  Mn  Mn17  1  0.00017300  0.50000000  0.09998500  1
  Mn  Mn18  1  0.99313500  0.50000000  0.69970400  1
  Mn  Mn19  1  0.99774500  0.50000000  0.50000000  1
  O  O20  1  0.33460700  0.00000000  0.00000000  1
  O  O21  1  0.32341000  0.00000000  0.40007700  1
  O  O22  1  0.32341000  0.00000000  0.59992300  1
  O  O23  1  0.66356800  0.00000000  0.79961800  1
  O  O24  1  0.66356800  0.00000000  0.20038200  1
  O  O25  1  0.83460700  0.50000000  0.00000000  1
  O  O26  1  0.82341000  0.50000000  0.40007700  1
  O  O27  1  0.82341000  0.50000000  0.59992300  1
  O  O28  1  0.16356800  0.50000000  0.79961800  1
  O  O29  1  0.16356800  0.50000000  0.20038200  1
  F  F30  1  0.49386750  0.29770450  0.69959300  1
  F  F31  1  0.49974850  0.29632650  0.90017600  1
  F  F32  1  0.49974850  0.29632650  0.09982400  1
  F  F33  1  0.49386750  0.29770450  0.30040700  1
  F  F34  1  0.51367950  0.30503350  0.50000000  1
  F  F35  1  0.27802700  0.00000000  0.80074600  1
  F  F36  1  0.27802700  0.00000000  0.19925400  1
  F  F37  1  0.71939100  0.00000000  0.00000000  1
  F  F38  1  0.70798800  0.00000000  0.40446400  1
  F  F39  1  0.70798800  0.00000000  0.59553600  1
  F  F40  1  0.49974850  0.70367350  0.90017600  1
  F  F41  1  0.49974850  0.70367350  0.09982400  1
  F  F42  1  0.49386750  0.70229550  0.30040700  1
  F  F43  1  0.49386750  0.70229550  0.69959300  1
  F  F44  1  0.51367950  0.69496650  0.50000000  1
  F  F45  1  0.99386750  0.79770450  0.69959300  1
  F  F46  1  0.99974850  0.79632650  0.90017600  1
  F  F47  1  0.99974850  0.79632650  0.09982400  1
  F  F48  1  0.99386750  0.79770450  0.30040700  1
  F  F49  1  0.01367950  0.80503350  0.50000000  1
  F  F50  1  0.77802700  0.50000000  0.80074600  1
  F  F51  1  0.77802700  0.50000000  0.19925400  1
  F  F52  1  0.21939100  0.50000000  0.00000000  1
  F  F53  1  0.20798800  0.50000000  0.40446400  1
  F  F54  1  0.20798800  0.50000000  0.59553600  1
  F  F55  1  0.99974850  0.20367350  0.90017600  1
  F  F56  1  0.99974850  0.20367350  0.09982400  1
  F  F57  1  0.99386750  0.20229550  0.30040700  1
  F  F58  1  0.99386750  0.20229550  0.69959300  1
  F  F59  1  0.01367950  0.19496650  0.50000000  1
