# generated using pymatgen
data_LiMnPO4
_symmetry_space_group_name_H-M   'P 1'
_cell_length_a   5.31091711
_cell_length_b   5.31091711
_cell_length_c   13.44879650
_cell_angle_alpha   90.00000000
_cell_angle_beta   90.00000000
_cell_angle_gamma   120.00000000
_symmetry_Int_Tables_number   1
_chemical_formula_structural   LiMnPO4
_chemical_formula_sum   'Li3 Mn3 P3 O12'
_cell_volume   328.51340824
_cell_formula_units_Z   3
loop_
 _symmetry_equiv_pos_site_id
 _symmetry_equiv_pos_as_xyz
  1  'x, y, z'
loop_
 _atom_site_type_symbol
 _atom_site_label
 _atom_site_symmetry_multiplicity
 _atom_site_fract_x
 _atom_site_fract_y
 _atom_site_fract_z
 _atom_site_occupancy
  Li  Li0  1  0.00000000  0.00000000  0.16666667  1
  Li  Li1  1  0.00000000  0.00000000  0.50000000  1
  Li  Li2  1  0.00000000  0.00000000  0.83333333  1
  Mn  Mn3  1  0.00000000  0.50000000  0.66666667  1
  Mn  Mn4  1  0.50000000  0.50000000  0.33333333  1
  Mn  Mn5  1  0.50000000  0.00000000  0.00000000  1
  P  P6  1  0.00000000  0.50000000  0.16666667  1
  P  P7  1  0.50000000  0.50000000  0.83333333  1
  P  P8  1  0.50000000  0.00000000  0.50000000  1
  O  O9  1  0.18053500  0.77534800  0.10201467  1
  O  O10  1  0.22465200  0.81946500  0.56465200  1
  O  O11  1  0.18053500  0.40518700  0.23131867  1
  O  O12  1  0.22465200  0.40518700  0.76868133  1
  O  O13  1  0.59481300  0.81946500  0.43534800  1
  O  O14  1  0.59481300  0.77534800  0.89798533  1
  O  O15  1  0.40518700  0.18053500  0.43534800  1
  O  O16  1  0.40518700  0.22465200  0.89798533  1
  O  O17  1  0.81946500  0.59481300  0.23131867  1
  O  O18  1  0.77534800  0.59481300  0.76868133  1
  O  O19  1  0.81946500  0.22465200  0.10201467  1
  O  O20  1  0.77534800  0.18053500  0.56465200  1
