# generated using pymatgen
data_SmCuP2
_symmetry_space_group_name_H-M   'P 1'
_cell_length_a   3.77441600
_cell_length_b   3.77441600
_cell_length_c   19.87133000
_cell_angle_alpha   90.00000000
_cell_angle_beta   90.00000000
_cell_angle_gamma   90.00000000
_symmetry_Int_Tables_number   1
_chemical_formula_structural   SmCuP2
_chemical_formula_sum   'Sm4 Cu4 P8'
_cell_volume   283.09126219
_cell_formula_units_Z   4
loop_
 _symmetry_equiv_pos_site_id
 _symmetry_equiv_pos_as_xyz
  1  'x, y, z'
loop_
 _atom_site_type_symbol
 _atom_site_label
 _atom_site_symmetry_multiplicity
 _atom_site_fract_x
 _atom_site_fract_y
 _atom_site_fract_z
 _atom_site_occupancy
  Sm  Sm0  1  0.50000000  0.50000000  0.38344600  1
  Sm  Sm1  1  0.00000000  0.00000000  0.11655400  1
  Sm  Sm2  1  0.00000000  0.00000000  0.88344600  1
  Sm  Sm3  1  0.50000000  0.50000000  0.61655400  1
  Cu  Cu4  1  0.50000000  0.00000000  0.25000000  1
  Cu  Cu5  1  0.00000000  0.50000000  0.25000000  1
  Cu  Cu6  1  0.00000000  0.50000000  0.75000000  1
  Cu  Cu7  1  0.50000000  0.00000000  0.75000000  1
  P  P8  1  0.50000000  0.50000000  0.17537400  1
  P  P9  1  0.00000000  0.00000000  0.32462600  1
  P  P10  1  0.50000000  0.00000000  0.00000000  1
  P  P11  1  0.00000000  0.50000000  0.00000000  1
  P  P12  1  0.00000000  0.00000000  0.67537400  1
  P  P13  1  0.50000000  0.50000000  0.82462600  1
  P  P14  1  0.00000000  0.50000000  0.50000000  1
  P  P15  1  0.50000000  0.00000000  0.50000000  1
