# generated using pymatgen
data_Fe3(O2F)2
_symmetry_space_group_name_H-M   'P 1'
_cell_length_a   9.25068000
_cell_length_b   6.40318800
_cell_length_c   7.51987324
_cell_angle_alpha   90.00000000
_cell_angle_beta   115.02324095
_cell_angle_gamma   90.00000000
_symmetry_Int_Tables_number   1
_chemical_formula_structural   Fe3(O2F)2
_chemical_formula_sum   'Fe12 O16 F8'
_cell_volume   403.62118436
_cell_formula_units_Z   4
loop_
 _symmetry_equiv_pos_site_id
 _symmetry_equiv_pos_as_xyz
  1  'x, y, z'
loop_
 _atom_site_type_symbol
 _atom_site_label
 _atom_site_symmetry_multiplicity
 _atom_site_fract_x
 _atom_site_fract_y
 _atom_site_fract_z
 _atom_site_occupancy
  Fe  Fe0  1  0.33521500  0.50000000  0.32866200  1
  Fe  Fe1  1  0.00000000  0.50000000  0.50000000  1
  Fe  Fe2  1  0.31534800  0.50000000  0.83770100  1
  Fe  Fe3  1  0.00000000  0.50000000  0.00000000  1
  Fe  Fe4  1  0.66478500  0.50000000  0.67133800  1
  Fe  Fe5  1  0.68465200  0.50000000  0.16229900  1
  Fe  Fe6  1  0.83521500  0.00000000  0.32866200  1
  Fe  Fe7  1  0.50000000  0.00000000  0.50000000  1
  Fe  Fe8  1  0.81534800  0.00000000  0.83770100  1
  Fe  Fe9  1  0.50000000  0.00000000  0.00000000  1
  Fe  Fe10  1  0.16478500  0.00000000  0.67133800  1
  Fe  Fe11  1  0.18465200  0.00000000  0.16229900  1
  O  O12  1  0.00000000  0.19303300  0.50000000  1
  O  O13  1  0.82866400  0.69537000  0.83738400  1
  O  O14  1  0.90578800  0.50000000  0.21644300  1
  O  O15  1  0.09421200  0.50000000  0.78355700  1
  O  O16  1  0.82866400  0.30463000  0.83738400  1
  O  O17  1  0.00000000  0.80696700  0.50000000  1
  O  O18  1  0.17133600  0.30463000  0.16261600  1
  O  O19  1  0.17133600  0.69537000  0.16261600  1
  O  O20  1  0.50000000  0.69303300  0.50000000  1
  O  O21  1  0.32866400  0.19537000  0.83738400  1
  O  O22  1  0.40578800  0.00000000  0.21644300  1
  O  O23  1  0.59421200  0.00000000  0.78355700  1
  O  O24  1  0.32866400  0.80463000  0.83738400  1
  O  O25  1  0.50000000  0.30696700  0.50000000  1
  O  O26  1  0.67133600  0.80463000  0.16261600  1
  O  O27  1  0.67133600  0.19537000  0.16261600  1
  F  F28  1  0.55495200  0.50000000  0.86703900  1
  F  F29  1  0.23489400  0.50000000  0.53616100  1
  F  F30  1  0.44504800  0.50000000  0.13296100  1
  F  F31  1  0.76510600  0.50000000  0.46383900  1
  F  F32  1  0.05495200  0.00000000  0.86703900  1
  F  F33  1  0.73489400  0.00000000  0.53616100  1
  F  F34  1  0.94504800  0.00000000  0.13296100  1
  F  F35  1  0.26510600  0.00000000  0.46383900  1
