# generated using pymatgen
data_TaNiTe5
_symmetry_space_group_name_H-M   'P 1'
_cell_length_a   3.70990800
_cell_length_b   13.93319000
_cell_length_c   15.25498000
_cell_angle_alpha   90.00000000
_cell_angle_beta   90.00000000
_cell_angle_gamma   90.00000000
_symmetry_Int_Tables_number   1
_chemical_formula_structural   TaNiTe5
_chemical_formula_sum   'Ta4 Ni4 Te20'
_cell_volume   788.54292941
_cell_formula_units_Z   4
loop_
 _symmetry_equiv_pos_site_id
 _symmetry_equiv_pos_as_xyz
  1  'x, y, z'
loop_
 _atom_site_type_symbol
 _atom_site_label
 _atom_site_symmetry_multiplicity
 _atom_site_fract_x
 _atom_site_fract_y
 _atom_site_fract_z
 _atom_site_occupancy
  Ta  Ta0  1  0.50000000  0.00974300  0.75000000  1
  Ta  Ta1  1  0.00000000  0.49025700  0.25000000  1
  Ta  Ta2  1  0.00000000  0.50974300  0.75000000  1
  Ta  Ta3  1  0.50000000  0.99025700  0.25000000  1
  Ni  Ni4  1  0.00000000  0.00000000  0.00000000  1
  Ni  Ni5  1  0.00000000  0.00000000  0.50000000  1
  Ni  Ni6  1  0.50000000  0.50000000  0.00000000  1
  Ni  Ni7  1  0.50000000  0.50000000  0.50000000  1
  Te  Te8  1  0.00000000  0.40056300  0.07592200  1
  Te  Te9  1  0.00000000  0.09749200  0.14572500  1
  Te  Te10  1  0.50000000  0.09943700  0.92407800  1
  Te  Te11  1  0.50000000  0.09943700  0.57592200  1
  Te  Te12  1  0.00000000  0.40056300  0.42407800  1
  Te  Te13  1  0.00000000  0.16505300  0.75000000  1
  Te  Te14  1  0.50000000  0.40250800  0.64572500  1
  Te  Te15  1  0.50000000  0.33494700  0.25000000  1
  Te  Te16  1  0.00000000  0.09749200  0.35427500  1
  Te  Te17  1  0.50000000  0.40250800  0.85427500  1
  Te  Te18  1  0.50000000  0.90056300  0.07592200  1
  Te  Te19  1  0.50000000  0.59749200  0.14572500  1
  Te  Te20  1  0.00000000  0.59943700  0.92407800  1
  Te  Te21  1  0.00000000  0.59943700  0.57592200  1
  Te  Te22  1  0.50000000  0.90056300  0.42407800  1
  Te  Te23  1  0.50000000  0.66505300  0.75000000  1
  Te  Te24  1  0.00000000  0.90250800  0.64572500  1
  Te  Te25  1  0.00000000  0.83494700  0.25000000  1
  Te  Te26  1  0.50000000  0.59749200  0.35427500  1
  Te  Te27  1  0.00000000  0.90250800  0.85427500  1
