# generated using pymatgen
data_V3(O2F)2
_symmetry_space_group_name_H-M   'P 1'
_cell_length_a   9.19884600
_cell_length_b   6.41346600
_cell_length_c   7.54967454
_cell_angle_alpha   90.00000000
_cell_angle_beta   114.62100639
_cell_angle_gamma   90.00000000
_symmetry_Int_Tables_number   1
_chemical_formula_structural   V3(O2F)2
_chemical_formula_sum   'V12 O16 F8'
_cell_volume   404.90963883
_cell_formula_units_Z   4
loop_
 _symmetry_equiv_pos_site_id
 _symmetry_equiv_pos_as_xyz
  1  'x, y, z'
loop_
 _atom_site_type_symbol
 _atom_site_label
 _atom_site_symmetry_multiplicity
 _atom_site_fract_x
 _atom_site_fract_y
 _atom_site_fract_z
 _atom_site_occupancy
  V  V0  1  0.17890000  0.50000000  0.14444200  1
  V  V1  1  0.83367900  0.50000000  0.33684700  1
  V  V2  1  0.16206300  0.50000000  0.67710400  1
  V  V3  1  0.84473400  0.50000000  0.80793400  1
  V  V4  1  0.49800400  0.50000000  0.50394600  1
  V  V5  1  0.49504400  0.50000000  0.00373400  1
  V  V6  1  0.67890000  0.00000000  0.14444200  1
  V  V7  1  0.33367900  0.00000000  0.33684700  1
  V  V8  1  0.66206300  0.00000000  0.67710400  1
  V  V9  1  0.34473400  0.00000000  0.80793400  1
  V  V10  1  0.99800400  0.00000000  0.50394600  1
  V  V11  1  0.99504400  0.00000000  0.00373400  1
  O  O12  1  0.82939850  0.19631450  0.33165000  1
  O  O13  1  0.16942350  0.19559150  0.67137500  1
  O  O14  1  0.26781500  0.50000000  0.97120100  1
  O  O15  1  0.93133400  0.50000000  0.63307000  1
  O  O16  1  0.99963450  0.30690350  0.00117600  1
  O  O17  1  0.82939850  0.80368550  0.33165000  1
  O  O18  1  0.16942350  0.80440850  0.67137500  1
  O  O19  1  0.99963450  0.69309650  0.00117600  1
  O  O20  1  0.32939850  0.69631450  0.33165000  1
  O  O21  1  0.66942350  0.69559150  0.67137500  1
  O  O22  1  0.76781500  0.00000000  0.97120100  1
  O  O23  1  0.43133400  0.00000000  0.63307000  1
  O  O24  1  0.49963450  0.80690350  0.00117600  1
  O  O25  1  0.32939850  0.30368550  0.33165000  1
  O  O26  1  0.66942350  0.30440850  0.67137500  1
  O  O27  1  0.49963450  0.19309650  0.00117600  1
  F  F28  1  0.72927900  0.50000000  0.03638100  1
  F  F29  1  0.06647500  0.50000000  0.37133400  1
  F  F30  1  0.39637000  0.50000000  0.70543100  1
  F  F31  1  0.59939100  0.50000000  0.30017100  1
  F  F32  1  0.22927900  0.00000000  0.03638100  1
  F  F33  1  0.56647500  0.00000000  0.37133400  1
  F  F34  1  0.89637000  0.00000000  0.70543100  1
  F  F35  1  0.09939100  0.00000000  0.30017100  1
