# generated using pymatgen
data_Fe4S5
_symmetry_space_group_name_H-M   'P 1'
_cell_length_a   7.89536162
_cell_length_b   7.89536162
_cell_length_c   10.06905432
_cell_angle_alpha   90.00000000
_cell_angle_beta   90.00000000
_cell_angle_gamma   90.00000000
_symmetry_Int_Tables_number   1
_chemical_formula_structural   Fe4S5
_chemical_formula_sum   'Fe8 S10'
_cell_volume   627.67197217
_cell_formula_units_Z   2
loop_
 _symmetry_equiv_pos_site_id
 _symmetry_equiv_pos_as_xyz
  1  'x, y, z'
loop_
 _atom_site_type_symbol
 _atom_site_label
 _atom_site_symmetry_multiplicity
 _atom_site_fract_x
 _atom_site_fract_y
 _atom_site_fract_z
 _atom_site_occupancy
  Fe  Fe0  1  0.90266350  0.20535550  0.00380900  1
  Fe  Fe1  1  0.79464450  0.90266350  0.00380900  1
  Fe  Fe2  1  0.70529750  0.59761950  0.99559300  1
  Fe  Fe3  1  0.59761950  0.29470250  0.99559300  1
  Fe  Fe4  1  0.09733650  0.79464450  0.00380900  1
  Fe  Fe5  1  0.20535550  0.09733650  0.00380900  1
  Fe  Fe6  1  0.29470250  0.40238050  0.99559300  1
  Fe  Fe7  1  0.40238050  0.70529750  0.99559300  1
  S  S8  1  0.00000000  0.00000000  0.88149400  1
  S  S9  1  0.79819950  0.38998750  0.87463900  1
  S  S10  1  0.70136950  0.11188450  0.12382200  1
  S  S11  1  0.61001250  0.79819950  0.87463900  1
  S  S12  1  0.50000000  0.50000000  0.11822900  1
  S  S13  1  0.11188450  0.29863050  0.12382200  1
  S  S14  1  0.20180050  0.61001250  0.87463900  1
  S  S15  1  0.29863050  0.88811550  0.12382200  1
  S  S16  1  0.38998750  0.20180050  0.87463900  1
  S  S17  1  0.88811550  0.70136950  0.12382200  1
