# generated using pymatgen
data_Zr6Al16Ru7
_symmetry_space_group_name_H-M   'P 1'
_cell_length_a   12.37124000
_cell_length_b   12.37124000
_cell_length_c   12.37124000
_cell_angle_alpha   90.00000000
_cell_angle_beta   90.00000000
_cell_angle_gamma   90.00000000
_symmetry_Int_Tables_number   1
_chemical_formula_structural   Zr6Al16Ru7
_chemical_formula_sum   'Zr24 Al64 Ru28'
_cell_volume   1893.38833293
_cell_formula_units_Z   4
loop_
 _symmetry_equiv_pos_site_id
 _symmetry_equiv_pos_as_xyz
  1  'x, y, z'
loop_
 _atom_site_type_symbol
 _atom_site_label
 _atom_site_symmetry_multiplicity
 _atom_site_fract_x
 _atom_site_fract_y
 _atom_site_fract_z
 _atom_site_occupancy
  Zr  Zr0  1  0.79629000  0.00000000  0.00000000  1
  Zr  Zr1  1  0.20371000  0.00000000  0.00000000  1
  Zr  Zr2  1  0.50000000  0.29629000  0.00000000  1
  Zr  Zr3  1  0.00000000  0.00000000  0.79629000  1
  Zr  Zr4  1  0.50000000  0.70371000  0.00000000  1
  Zr  Zr5  1  0.50000000  0.00000000  0.70371000  1
  Zr  Zr6  1  0.79629000  0.50000000  0.50000000  1
  Zr  Zr7  1  0.20371000  0.50000000  0.50000000  1
  Zr  Zr8  1  0.50000000  0.79629000  0.50000000  1
  Zr  Zr9  1  0.00000000  0.50000000  0.29629000  1
  Zr  Zr10  1  0.50000000  0.20371000  0.50000000  1
  Zr  Zr11  1  0.50000000  0.50000000  0.20371000  1
  Zr  Zr12  1  0.29629000  0.00000000  0.50000000  1
  Zr  Zr13  1  0.70371000  0.00000000  0.50000000  1
  Zr  Zr14  1  0.00000000  0.29629000  0.50000000  1
  Zr  Zr15  1  0.50000000  0.00000000  0.29629000  1
  Zr  Zr16  1  0.00000000  0.70371000  0.50000000  1
  Zr  Zr17  1  0.00000000  0.00000000  0.20371000  1
  Zr  Zr18  1  0.29629000  0.50000000  0.00000000  1
  Zr  Zr19  1  0.70371000  0.50000000  0.00000000  1
  Zr  Zr20  1  0.00000000  0.79629000  0.00000000  1
  Zr  Zr21  1  0.50000000  0.50000000  0.79629000  1
  Zr  Zr22  1  0.00000000  0.20371000  0.00000000  1
  Zr  Zr23  1  0.00000000  0.50000000  0.70371000  1
  Al  Al24  1  0.33654600  0.33654600  0.83654600  1
  Al  Al25  1  0.16345400  0.16345400  0.83654600  1
  Al  Al26  1  0.33654600  0.16345400  0.66345400  1
  Al  Al27  1  0.16345400  0.33654600  0.66345400  1
  Al  Al28  1  0.16345400  0.66345400  0.66345400  1
  Al  Al29  1  0.33654600  0.83654600  0.66345400  1
  Al  Al30  1  0.33654600  0.66345400  0.83654600  1
  Al  Al31  1  0.16345400  0.83654600  0.83654600  1
  Al  Al32  1  0.11948300  0.11948300  0.61948300  1
  Al  Al33  1  0.88051700  0.88051700  0.61948300  1
  Al  Al34  1  0.61948300  0.88051700  0.88051700  1
  Al  Al35  1  0.38051700  0.11948300  0.88051700  1
  Al  Al36  1  0.38051700  0.88051700  0.88051700  1
  Al  Al37  1  0.61948300  0.11948300  0.88051700  1
  Al  Al38  1  0.11948300  0.88051700  0.61948300  1
  Al  Al39  1  0.88051700  0.11948300  0.61948300  1
  Al  Al40  1  0.33654600  0.83654600  0.33654600  1
  Al  Al41  1  0.16345400  0.66345400  0.33654600  1
  Al  Al42  1  0.33654600  0.66345400  0.16345400  1
  Al  Al43  1  0.16345400  0.83654600  0.16345400  1
  Al  Al44  1  0.16345400  0.16345400  0.16345400  1
  Al  Al45  1  0.33654600  0.33654600  0.16345400  1
  Al  Al46  1  0.33654600  0.16345400  0.33654600  1
  Al  Al47  1  0.16345400  0.33654600  0.33654600  1
  Al  Al48  1  0.11948300  0.61948300  0.11948300  1
  Al  Al49  1  0.88051700  0.38051700  0.11948300  1
  Al  Al50  1  0.61948300  0.38051700  0.38051700  1
  Al  Al51  1  0.38051700  0.61948300  0.38051700  1
  Al  Al52  1  0.38051700  0.38051700  0.38051700  1
  Al  Al53  1  0.61948300  0.61948300  0.38051700  1
  Al  Al54  1  0.11948300  0.38051700  0.11948300  1
  Al  Al55  1  0.88051700  0.61948300  0.11948300  1
  Al  Al56  1  0.83654600  0.33654600  0.33654600  1
  Al  Al57  1  0.66345400  0.16345400  0.33654600  1
  Al  Al58  1  0.83654600  0.16345400  0.16345400  1
  Al  Al59  1  0.66345400  0.33654600  0.16345400  1
  Al  Al60  1  0.66345400  0.66345400  0.16345400  1
  Al  Al61  1  0.83654600  0.83654600  0.16345400  1
  Al  Al62  1  0.83654600  0.66345400  0.33654600  1
  Al  Al63  1  0.66345400  0.83654600  0.33654600  1
  Al  Al64  1  0.61948300  0.11948300  0.11948300  1
  Al  Al65  1  0.38051700  0.88051700  0.11948300  1
  Al  Al66  1  0.11948300  0.88051700  0.38051700  1
  Al  Al67  1  0.88051700  0.11948300  0.38051700  1
  Al  Al68  1  0.88051700  0.88051700  0.38051700  1
  Al  Al69  1  0.11948300  0.11948300  0.38051700  1
  Al  Al70  1  0.61948300  0.88051700  0.11948300  1
  Al  Al71  1  0.38051700  0.11948300  0.11948300  1
  Al  Al72  1  0.83654600  0.83654600  0.83654600  1
  Al  Al73  1  0.66345400  0.66345400  0.83654600  1
  Al  Al74  1  0.83654600  0.66345400  0.66345400  1
  Al  Al75  1  0.66345400  0.83654600  0.66345400  1
  Al  Al76  1  0.66345400  0.16345400  0.66345400  1
  Al  Al77  1  0.83654600  0.33654600  0.66345400  1
  Al  Al78  1  0.83654600  0.16345400  0.83654600  1
  Al  Al79  1  0.66345400  0.33654600  0.83654600  1
  Al  Al80  1  0.61948300  0.61948300  0.61948300  1
  Al  Al81  1  0.38051700  0.38051700  0.61948300  1
  Al  Al82  1  0.11948300  0.38051700  0.88051700  1
  Al  Al83  1  0.88051700  0.61948300  0.88051700  1
  Al  Al84  1  0.88051700  0.38051700  0.88051700  1
  Al  Al85  1  0.11948300  0.61948300  0.88051700  1
  Al  Al86  1  0.61948300  0.38051700  0.61948300  1
  Al  Al87  1  0.38051700  0.61948300  0.61948300  1
  Ru  Ru88  1  0.00000000  0.25000000  0.75000000  1
  Ru  Ru89  1  0.00000000  0.75000000  0.75000000  1
  Ru  Ru90  1  0.25000000  0.00000000  0.75000000  1
  Ru  Ru91  1  0.25000000  0.75000000  0.00000000  1
  Ru  Ru92  1  0.75000000  0.00000000  0.75000000  1
  Ru  Ru93  1  0.25000000  0.25000000  0.00000000  1
  Ru  Ru94  1  0.50000000  0.00000000  0.00000000  1
  Ru  Ru95  1  0.00000000  0.75000000  0.25000000  1
  Ru  Ru96  1  0.00000000  0.25000000  0.25000000  1
  Ru  Ru97  1  0.25000000  0.50000000  0.25000000  1
  Ru  Ru98  1  0.25000000  0.25000000  0.50000000  1
  Ru  Ru99  1  0.75000000  0.50000000  0.25000000  1
  Ru  Ru100  1  0.25000000  0.75000000  0.50000000  1
  Ru  Ru101  1  0.50000000  0.50000000  0.50000000  1
  Ru  Ru102  1  0.50000000  0.25000000  0.25000000  1
  Ru  Ru103  1  0.50000000  0.75000000  0.25000000  1
  Ru  Ru104  1  0.75000000  0.00000000  0.25000000  1
  Ru  Ru105  1  0.75000000  0.75000000  0.50000000  1
  Ru  Ru106  1  0.25000000  0.00000000  0.25000000  1
  Ru  Ru107  1  0.75000000  0.25000000  0.50000000  1
  Ru  Ru108  1  0.00000000  0.00000000  0.50000000  1
  Ru  Ru109  1  0.50000000  0.75000000  0.75000000  1
  Ru  Ru110  1  0.50000000  0.25000000  0.75000000  1
  Ru  Ru111  1  0.75000000  0.50000000  0.75000000  1
  Ru  Ru112  1  0.75000000  0.25000000  0.00000000  1
  Ru  Ru113  1  0.25000000  0.50000000  0.75000000  1
  Ru  Ru114  1  0.75000000  0.75000000  0.00000000  1
  Ru  Ru115  1  0.00000000  0.50000000  0.00000000  1
