# generated using pymatgen
data_Li2Fe(SiO3)2
_symmetry_space_group_name_H-M   'P 1'
_cell_length_a   6.32756800
_cell_length_b   21.39789400
_cell_length_c   23.98189000
_cell_angle_alpha   90.00000000
_cell_angle_beta   90.00000000
_cell_angle_gamma   90.00000000
_symmetry_Int_Tables_number   1
_chemical_formula_structural   Li2Fe(SiO3)2
_chemical_formula_sum   'Li48 Fe24 Si48 O144'
_cell_volume   3247.06707125
_cell_formula_units_Z   24
loop_
 _symmetry_equiv_pos_site_id
 _symmetry_equiv_pos_as_xyz
  1  'x, y, z'
loop_
 _atom_site_type_symbol
 _atom_site_label
 _atom_site_symmetry_multiplicity
 _atom_site_fract_x
 _atom_site_fract_y
 _atom_site_fract_z
 _atom_site_occupancy
  Li  Li0  1  0.75000000  0.75000000  0.51150800  1
  Li  Li1  1  0.75000000  0.75000000  0.84947100  1
  Li  Li2  1  0.49887050  0.68464950  0.72917200  1
  Li  Li3  1  0.99747800  0.64022800  0.56721400  1
  Li  Li4  1  0.24747800  0.60977200  0.81721400  1
  Li  Li5  1  0.74887050  0.56535050  0.97917200  1
  Li  Li6  1  0.00000000  0.50000000  0.76150800  1
  Li  Li7  1  0.50000000  0.50000000  0.59947100  1
  Li  Li8  1  0.75112950  0.93464950  0.97917200  1
  Li  Li9  1  0.25252200  0.89022800  0.81721400  1
  Li  Li10  1  0.50252200  0.85977200  0.56721400  1
  Li  Li11  1  0.00112950  0.81535050  0.72917200  1
  Li  Li12  1  0.75000000  0.25000000  0.01150800  1
  Li  Li13  1  0.75000000  0.25000000  0.34947100  1
  Li  Li14  1  0.49887050  0.18464950  0.22917200  1
  Li  Li15  1  0.99747800  0.14022800  0.06721400  1
  Li  Li16  1  0.24747800  0.10977200  0.31721400  1
  Li  Li17  1  0.74887050  0.06535050  0.47917200  1
  Li  Li18  1  0.00000000  0.00000000  0.26150800  1
  Li  Li19  1  0.50000000  0.00000000  0.09947100  1
  Li  Li20  1  0.75112950  0.43464950  0.47917200  1
  Li  Li21  1  0.25252200  0.39022800  0.31721400  1
  Li  Li22  1  0.50252200  0.35977200  0.06721400  1
  Li  Li23  1  0.00112950  0.31535050  0.22917200  1
  Li  Li24  1  0.25000000  0.75000000  0.01150800  1
  Li  Li25  1  0.25000000  0.75000000  0.34947100  1
  Li  Li26  1  0.99887050  0.68464950  0.22917200  1
  Li  Li27  1  0.49747800  0.64022800  0.06721400  1
  Li  Li28  1  0.74747800  0.60977200  0.31721400  1
  Li  Li29  1  0.24887050  0.56535050  0.47917200  1
  Li  Li30  1  0.50000000  0.50000000  0.26150800  1
  Li  Li31  1  0.00000000  0.50000000  0.09947100  1
  Li  Li32  1  0.25112950  0.93464950  0.47917200  1
  Li  Li33  1  0.75252200  0.89022800  0.31721400  1
  Li  Li34  1  0.00252200  0.85977200  0.06721400  1
  Li  Li35  1  0.50112950  0.81535050  0.22917200  1
  Li  Li36  1  0.25000000  0.25000000  0.51150800  1
  Li  Li37  1  0.25000000  0.25000000  0.84947100  1
  Li  Li38  1  0.99887050  0.18464950  0.72917200  1
  Li  Li39  1  0.49747800  0.14022800  0.56721400  1
  Li  Li40  1  0.74747800  0.10977200  0.81721400  1
  Li  Li41  1  0.24887050  0.06535050  0.97917200  1
  Li  Li42  1  0.50000000  0.00000000  0.76150800  1
  Li  Li43  1  0.00000000  0.00000000  0.59947100  1
  Li  Li44  1  0.25112950  0.43464950  0.97917200  1
  Li  Li45  1  0.75252200  0.39022800  0.81721400  1
  Li  Li46  1  0.00252200  0.35977200  0.56721400  1
  Li  Li47  1  0.50112950  0.31535050  0.72917200  1
  Fe  Fe48  1  0.75000000  0.75000000  0.63128000  1
  Fe  Fe49  1  0.48516400  0.66668000  0.92642600  1
  Fe  Fe50  1  0.23516400  0.58332000  0.67642600  1
  Fe  Fe51  1  0.00000000  0.50000000  0.88128000  1
  Fe  Fe52  1  0.26483600  0.91668000  0.67642600  1
  Fe  Fe53  1  0.01483600  0.83332000  0.92642600  1
  Fe  Fe54  1  0.75000000  0.25000000  0.13128000  1
  Fe  Fe55  1  0.48516400  0.16668000  0.42642600  1
  Fe  Fe56  1  0.23516400  0.08332000  0.17642600  1
  Fe  Fe57  1  0.00000000  0.00000000  0.38128000  1
  Fe  Fe58  1  0.26483600  0.41668000  0.17642600  1
  Fe  Fe59  1  0.01483600  0.33332000  0.42642600  1
  Fe  Fe60  1  0.25000000  0.75000000  0.13128000  1
  Fe  Fe61  1  0.98516400  0.66668000  0.42642600  1
  Fe  Fe62  1  0.73516400  0.58332000  0.17642600  1
  Fe  Fe63  1  0.50000000  0.50000000  0.38128000  1
  Fe  Fe64  1  0.76483600  0.91668000  0.17642600  1
  Fe  Fe65  1  0.51483600  0.83332000  0.42642600  1
  Fe  Fe66  1  0.25000000  0.25000000  0.63128000  1
  Fe  Fe67  1  0.98516400  0.16668000  0.92642600  1
  Fe  Fe68  1  0.73516400  0.08332000  0.67642600  1
  Fe  Fe69  1  0.50000000  0.00000000  0.88128000  1
  Fe  Fe70  1  0.76483600  0.41668000  0.67642600  1
  Fe  Fe71  1  0.51483600  0.33332000  0.92642600  1
  Si  Si72  1  0.25000000  0.75000000  0.83625000  1
  Si  Si73  1  0.25000000  0.75000000  0.51395400  1
  Si  Si74  1  0.00429900  0.69210200  0.74140100  1
  Si  Si75  1  0.50534300  0.64161850  0.56724350  1
  Si  Si76  1  0.75534300  0.60838150  0.81724350  1
  Si  Si77  1  0.25429900  0.55789800  0.99140100  1
  Si  Si78  1  0.00000000  0.50000000  0.58625000  1
  Si  Si79  1  0.50000000  0.50000000  0.76395400  1
  Si  Si80  1  0.24570100  0.94210200  0.99140100  1
  Si  Si81  1  0.74465700  0.89161850  0.81724350  1
  Si  Si82  1  0.99465700  0.85838150  0.56724350  1
  Si  Si83  1  0.49570100  0.80789800  0.74140100  1
  Si  Si84  1  0.25000000  0.25000000  0.33625000  1
  Si  Si85  1  0.25000000  0.25000000  0.01395400  1
  Si  Si86  1  0.00429900  0.19210200  0.24140100  1
  Si  Si87  1  0.50534300  0.14161850  0.06724350  1
  Si  Si88  1  0.75534300  0.10838150  0.31724350  1
  Si  Si89  1  0.25429900  0.05789800  0.49140100  1
  Si  Si90  1  0.00000000  0.00000000  0.08625000  1
  Si  Si91  1  0.50000000  0.00000000  0.26395400  1
  Si  Si92  1  0.24570100  0.44210200  0.49140100  1
  Si  Si93  1  0.74465700  0.39161850  0.31724350  1
  Si  Si94  1  0.99465700  0.35838150  0.06724350  1
  Si  Si95  1  0.49570100  0.30789800  0.24140100  1
  Si  Si96  1  0.75000000  0.75000000  0.33625000  1
  Si  Si97  1  0.75000000  0.75000000  0.01395400  1
  Si  Si98  1  0.50429900  0.69210200  0.24140100  1
  Si  Si99  1  0.00534300  0.64161850  0.06724350  1
  Si  Si100  1  0.25534300  0.60838150  0.31724350  1
  Si  Si101  1  0.75429900  0.55789800  0.49140100  1
  Si  Si102  1  0.50000000  0.50000000  0.08625000  1
  Si  Si103  1  0.00000000  0.50000000  0.26395400  1
  Si  Si104  1  0.74570100  0.94210200  0.49140100  1
  Si  Si105  1  0.24465700  0.89161850  0.31724350  1
  Si  Si106  1  0.49465700  0.85838150  0.06724350  1
  Si  Si107  1  0.99570100  0.80789800  0.24140100  1
  Si  Si108  1  0.75000000  0.25000000  0.83625000  1
  Si  Si109  1  0.75000000  0.25000000  0.51395400  1
  Si  Si110  1  0.50429900  0.19210200  0.74140100  1
  Si  Si111  1  0.00534300  0.14161850  0.56724350  1
  Si  Si112  1  0.25534300  0.10838150  0.81724350  1
  Si  Si113  1  0.75429900  0.05789800  0.99140100  1
  Si  Si114  1  0.50000000  0.00000000  0.58625000  1
  Si  Si115  1  0.00000000  0.00000000  0.76395400  1
  Si  Si116  1  0.74570100  0.44210200  0.99140100  1
  Si  Si117  1  0.24465700  0.39161850  0.81724350  1
  Si  Si118  1  0.49465700  0.35838150  0.56724350  1
  Si  Si119  1  0.99570100  0.30789800  0.74140100  1
  O  O120  1  0.03478950  0.74324050  0.79461300  1
  O  O121  1  0.53419000  0.73772500  0.98003800  1
  O  O122  1  0.97157850  0.73562350  0.68785100  1
  O  O123  1  0.71838300  0.68341400  0.57201600  1
  O  O124  1  0.29101600  0.68648200  0.55539300  1
  O  O125  1  0.26733200  0.68459100  0.86887500  1
  O  O126  1  0.78469700  0.65183450  0.75802050  1
  O  O127  1  0.71323450  0.65562200  0.86832450  1
  O  O128  1  0.21405500  0.64847900  0.73896700  1
  O  O129  1  0.46405500  0.60152100  0.98896700  1
  O  O130  1  0.46323450  0.59437800  0.61832450  1
  O  O131  1  0.53469700  0.59816550  0.50802050  1
  O  O132  1  0.01733200  0.56540900  0.61887500  1
  O  O133  1  0.54101600  0.56351800  0.80539300  1
  O  O134  1  0.96838300  0.56658600  0.82201600  1
  O  O135  1  0.22157850  0.51437650  0.93785100  1
  O  O136  1  0.28419000  0.51227500  0.73003800  1
  O  O137  1  0.78478950  0.50675950  0.54461300  1
  O  O138  1  0.71521050  0.99324050  0.54461300  1
  O  O139  1  0.21581000  0.98772500  0.73003800  1
  O  O140  1  0.27842150  0.98562350  0.93785100  1
  O  O141  1  0.53161700  0.93341400  0.82201600  1
  O  O142  1  0.95898400  0.93648200  0.80539300  1
  O  O143  1  0.48266800  0.93459100  0.61887500  1
  O  O144  1  0.96530300  0.90183450  0.50802050  1
  O  O145  1  0.03676550  0.90562200  0.61832450  1
  O  O146  1  0.03594500  0.89847900  0.98896700  1
  O  O147  1  0.28594500  0.85152100  0.73896700  1
  O  O148  1  0.78676550  0.84437800  0.86832450  1
  O  O149  1  0.71530300  0.84816550  0.75802050  1
  O  O150  1  0.23266800  0.81540900  0.86887500  1
  O  O151  1  0.20898400  0.81351800  0.55539300  1
  O  O152  1  0.78161700  0.81658600  0.57201600  1
  O  O153  1  0.52842150  0.76437650  0.68785100  1
  O  O154  1  0.96581000  0.76227500  0.98003800  1
  O  O155  1  0.46521050  0.75675950  0.79461300  1
  O  O156  1  0.03478950  0.24324050  0.29461300  1
  O  O157  1  0.53419000  0.23772500  0.48003800  1
  O  O158  1  0.97157850  0.23562350  0.18785100  1
  O  O159  1  0.71838300  0.18341400  0.07201600  1
  O  O160  1  0.29101600  0.18648200  0.05539300  1
  O  O161  1  0.26733200  0.18459100  0.36887500  1
  O  O162  1  0.78469700  0.15183450  0.25802050  1
  O  O163  1  0.71323450  0.15562200  0.36832450  1
  O  O164  1  0.21405500  0.14847900  0.23896700  1
  O  O165  1  0.46405500  0.10152100  0.48896700  1
  O  O166  1  0.46323450  0.09437800  0.11832450  1
  O  O167  1  0.53469700  0.09816550  0.00802050  1
  O  O168  1  0.01733200  0.06540900  0.11887500  1
  O  O169  1  0.54101600  0.06351800  0.30539300  1
  O  O170  1  0.96838300  0.06658600  0.32201600  1
  O  O171  1  0.22157850  0.01437650  0.43785100  1
  O  O172  1  0.28419000  0.01227500  0.23003800  1
  O  O173  1  0.78478950  0.00675950  0.04461300  1
  O  O174  1  0.71521050  0.49324050  0.04461300  1
  O  O175  1  0.21581000  0.48772500  0.23003800  1
  O  O176  1  0.27842150  0.48562350  0.43785100  1
  O  O177  1  0.53161700  0.43341400  0.32201600  1
  O  O178  1  0.95898400  0.43648200  0.30539300  1
  O  O179  1  0.48266800  0.43459100  0.11887500  1
  O  O180  1  0.96530300  0.40183450  0.00802050  1
  O  O181  1  0.03676550  0.40562200  0.11832450  1
  O  O182  1  0.03594500  0.39847900  0.48896700  1
  O  O183  1  0.28594500  0.35152100  0.23896700  1
  O  O184  1  0.78676550  0.34437800  0.36832450  1
  O  O185  1  0.71530300  0.34816550  0.25802050  1
  O  O186  1  0.23266800  0.31540900  0.36887500  1
  O  O187  1  0.20898400  0.31351800  0.05539300  1
  O  O188  1  0.78161700  0.31658600  0.07201600  1
  O  O189  1  0.52842150  0.26437650  0.18785100  1
  O  O190  1  0.96581000  0.26227500  0.48003800  1
  O  O191  1  0.46521050  0.25675950  0.29461300  1
  O  O192  1  0.53478950  0.74324050  0.29461300  1
  O  O193  1  0.03419000  0.73772500  0.48003800  1
  O  O194  1  0.47157850  0.73562350  0.18785100  1
  O  O195  1  0.21838300  0.68341400  0.07201600  1
  O  O196  1  0.79101600  0.68648200  0.05539300  1
  O  O197  1  0.76733200  0.68459100  0.36887500  1
  O  O198  1  0.28469700  0.65183450  0.25802050  1
  O  O199  1  0.21323450  0.65562200  0.36832450  1
  O  O200  1  0.71405500  0.64847900  0.23896700  1
  O  O201  1  0.96405500  0.60152100  0.48896700  1
  O  O202  1  0.96323450  0.59437800  0.11832450  1
  O  O203  1  0.03469700  0.59816550  0.00802050  1
  O  O204  1  0.51733200  0.56540900  0.11887500  1
  O  O205  1  0.04101600  0.56351800  0.30539300  1
  O  O206  1  0.46838300  0.56658600  0.32201600  1
  O  O207  1  0.72157850  0.51437650  0.43785100  1
  O  O208  1  0.78419000  0.51227500  0.23003800  1
  O  O209  1  0.28478950  0.50675950  0.04461300  1
  O  O210  1  0.21521050  0.99324050  0.04461300  1
  O  O211  1  0.71581000  0.98772500  0.23003800  1
  O  O212  1  0.77842150  0.98562350  0.43785100  1
  O  O213  1  0.03161700  0.93341400  0.32201600  1
  O  O214  1  0.45898400  0.93648200  0.30539300  1
  O  O215  1  0.98266800  0.93459100  0.11887500  1
  O  O216  1  0.46530300  0.90183450  0.00802050  1
  O  O217  1  0.53676550  0.90562200  0.11832450  1
  O  O218  1  0.53594500  0.89847900  0.48896700  1
  O  O219  1  0.78594500  0.85152100  0.23896700  1
  O  O220  1  0.28676550  0.84437800  0.36832450  1
  O  O221  1  0.21530300  0.84816550  0.25802050  1
  O  O222  1  0.73266800  0.81540900  0.36887500  1
  O  O223  1  0.70898400  0.81351800  0.05539300  1
  O  O224  1  0.28161700  0.81658600  0.07201600  1
  O  O225  1  0.02842150  0.76437650  0.18785100  1
  O  O226  1  0.46581000  0.76227500  0.48003800  1
  O  O227  1  0.96521050  0.75675950  0.29461300  1
  O  O228  1  0.53478950  0.24324050  0.79461300  1
  O  O229  1  0.03419000  0.23772500  0.98003800  1
  O  O230  1  0.47157850  0.23562350  0.68785100  1
  O  O231  1  0.21838300  0.18341400  0.57201600  1
  O  O232  1  0.79101600  0.18648200  0.55539300  1
  O  O233  1  0.76733200  0.18459100  0.86887500  1
  O  O234  1  0.28469700  0.15183450  0.75802050  1
  O  O235  1  0.21323450  0.15562200  0.86832450  1
  O  O236  1  0.71405500  0.14847900  0.73896700  1
  O  O237  1  0.96405500  0.10152100  0.98896700  1
  O  O238  1  0.96323450  0.09437800  0.61832450  1
  O  O239  1  0.03469700  0.09816550  0.50802050  1
  O  O240  1  0.51733200  0.06540900  0.61887500  1
  O  O241  1  0.04101600  0.06351800  0.80539300  1
  O  O242  1  0.46838300  0.06658600  0.82201600  1
  O  O243  1  0.72157850  0.01437650  0.93785100  1
  O  O244  1  0.78419000  0.01227500  0.73003800  1
  O  O245  1  0.28478950  0.00675950  0.54461300  1
  O  O246  1  0.21521050  0.49324050  0.54461300  1
  O  O247  1  0.71581000  0.48772500  0.73003800  1
  O  O248  1  0.77842150  0.48562350  0.93785100  1
  O  O249  1  0.03161700  0.43341400  0.82201600  1
  O  O250  1  0.45898400  0.43648200  0.80539300  1
  O  O251  1  0.98266800  0.43459100  0.61887500  1
  O  O252  1  0.46530300  0.40183450  0.50802050  1
  O  O253  1  0.53676550  0.40562200  0.61832450  1
  O  O254  1  0.53594500  0.39847900  0.98896700  1
  O  O255  1  0.78594500  0.35152100  0.73896700  1
  O  O256  1  0.28676550  0.34437800  0.86832450  1
  O  O257  1  0.21530300  0.34816550  0.75802050  1
  O  O258  1  0.73266800  0.31540900  0.86887500  1
  O  O259  1  0.70898400  0.31351800  0.55539300  1
  O  O260  1  0.28161700  0.31658600  0.57201600  1
  O  O261  1  0.02842150  0.26437650  0.68785100  1
  O  O262  1  0.46581000  0.26227500  0.98003800  1
  O  O263  1  0.96521050  0.25675950  0.79461300  1
