# generated using pymatgen
data_LiGe
_symmetry_space_group_name_H-M   'P 1'
_cell_length_a   4.06998200
_cell_length_b   4.06998200
_cell_length_c   23.34561000
_cell_angle_alpha   90.00000000
_cell_angle_beta   90.00000000
_cell_angle_gamma   90.00000000
_symmetry_Int_Tables_number   1
_chemical_formula_structural   LiGe
_chemical_formula_sum   'Li12 Ge12'
_cell_volume   386.71427450
_cell_formula_units_Z   12
loop_
 _symmetry_equiv_pos_site_id
 _symmetry_equiv_pos_as_xyz
  1  'x, y, z'
loop_
 _atom_site_type_symbol
 _atom_site_label
 _atom_site_symmetry_multiplicity
 _atom_site_fract_x
 _atom_site_fract_y
 _atom_site_fract_z
 _atom_site_occupancy
  Li  Li0  1  0.00000000  0.00000000  0.00000000  1
  Li  Li1  1  0.00000000  0.50000000  0.25000000  1
  Li  Li2  1  0.00000000  0.50000000  0.08689900  1
  Li  Li3  1  0.50000000  0.50000000  0.33689900  1
  Li  Li4  1  0.00000000  0.00000000  0.16310100  1
  Li  Li5  1  0.00000000  0.50000000  0.41310100  1
  Li  Li6  1  0.50000000  0.50000000  0.50000000  1
  Li  Li7  1  0.50000000  0.00000000  0.75000000  1
  Li  Li8  1  0.50000000  0.00000000  0.58689900  1
  Li  Li9  1  0.00000000  0.00000000  0.83689900  1
  Li  Li10  1  0.50000000  0.50000000  0.66310100  1
  Li  Li11  1  0.50000000  0.00000000  0.91310100  1
  Ge  Ge12  1  0.50000000  0.00000000  0.25000000  1
  Ge  Ge13  1  0.50000000  0.50000000  0.00000000  1
  Ge  Ge14  1  0.50000000  0.00000000  0.42269700  1
  Ge  Ge15  1  0.50000000  0.50000000  0.17269700  1
  Ge  Ge16  1  0.00000000  0.00000000  0.32730300  1
  Ge  Ge17  1  0.50000000  0.00000000  0.07730300  1
  Ge  Ge18  1  0.00000000  0.50000000  0.75000000  1
  Ge  Ge19  1  0.00000000  0.00000000  0.50000000  1
  Ge  Ge20  1  0.00000000  0.50000000  0.92269700  1
  Ge  Ge21  1  0.00000000  0.00000000  0.67269700  1
  Ge  Ge22  1  0.50000000  0.50000000  0.82730300  1
  Ge  Ge23  1  0.00000000  0.50000000  0.57730300  1
