# generated using pymatgen
data_Li4Cr3Co3(WO8)2
_symmetry_space_group_name_H-M   'P 1'
_cell_length_a   10.28488600
_cell_length_b   5.95156600
_cell_length_c   9.67372075
_cell_angle_alpha   90.00000000
_cell_angle_beta   90.48930257
_cell_angle_gamma   90.00000000
_symmetry_Int_Tables_number   1
_chemical_formula_structural   Li4Cr3Co3(WO8)2
_chemical_formula_sum   'Li8 Cr6 Co6 W4 O32'
_cell_volume   592.11824888
_cell_formula_units_Z   2
loop_
 _symmetry_equiv_pos_site_id
 _symmetry_equiv_pos_as_xyz
  1  'x, y, z'
loop_
 _atom_site_type_symbol
 _atom_site_label
 _atom_site_symmetry_multiplicity
 _atom_site_fract_x
 _atom_site_fract_y
 _atom_site_fract_z
 _atom_site_occupancy
  Li  Li0  1  0.32915900  0.00000000  0.09093800  1
  Li  Li1  1  0.00283500  0.00000000  0.01344400  1
  Li  Li2  1  0.00267400  0.00000000  0.50669200  1
  Li  Li3  1  0.66487800  0.00000000  0.59659300  1
  Li  Li4  1  0.82915900  0.50000000  0.09093800  1
  Li  Li5  1  0.50283500  0.50000000  0.01344400  1
  Li  Li6  1  0.50267400  0.50000000  0.50669200  1
  Li  Li7  1  0.16487800  0.50000000  0.59659300  1
  Cr  Cr8  1  0.41623800  0.24748300  0.78693200  1
  Cr  Cr9  1  0.41623800  0.75251700  0.78693200  1
  Cr  Cr10  1  0.82798700  0.00000000  0.28601900  1
  Cr  Cr11  1  0.91623800  0.74748300  0.78693200  1
  Cr  Cr12  1  0.91623800  0.25251700  0.78693200  1
  Cr  Cr13  1  0.32798700  0.50000000  0.28601900  1
  Co  Co14  1  0.17207300  0.00000000  0.78624300  1
  Co  Co15  1  0.58334450  0.24124250  0.28556700  1
  Co  Co16  1  0.58334450  0.75875750  0.28556700  1
  Co  Co17  1  0.67207300  0.50000000  0.78624300  1
  Co  Co18  1  0.08334450  0.74124250  0.28556700  1
  Co  Co19  1  0.08334450  0.25875750  0.28556700  1
  W  W20  1  0.33059600  0.00000000  0.51281400  1
  W  W21  1  0.66692300  0.00000000  0.01339600  1
  W  W22  1  0.83059600  0.50000000  0.51281400  1
  W  W23  1  0.16692300  0.50000000  0.01339600  1
  O  O24  1  0.40484750  0.24618350  0.41628700  1
  O  O25  1  0.47918100  0.00000000  0.65802400  1
  O  O26  1  0.33135200  0.00000000  0.88772700  1
  O  O27  1  0.00518300  0.00000000  0.69451100  1
  O  O28  1  0.00022000  0.00000000  0.20111600  1
  O  O29  1  0.40484750  0.75381650  0.41628700  1
  O  O30  1  0.25757350  0.21544250  0.66272500  1
  O  O31  1  0.25757350  0.78455750  0.66272500  1
  O  O32  1  0.83260000  0.00000000  0.90250300  1
  O  O33  1  0.17158300  0.00000000  0.42110000  1
  O  O34  1  0.74777250  0.21406450  0.14536600  1
  O  O35  1  0.74777250  0.78593550  0.14536600  1
  O  O36  1  0.66570200  0.00000000  0.39108500  1
  O  O37  1  0.59123950  0.25138550  0.90342100  1
  O  O38  1  0.51703800  0.00000000  0.12935000  1
  O  O39  1  0.59123950  0.74861450  0.90342100  1
  O  O40  1  0.90484750  0.74618350  0.41628700  1
  O  O41  1  0.97918100  0.50000000  0.65802400  1
  O  O42  1  0.83135200  0.50000000  0.88772700  1
  O  O43  1  0.50518300  0.50000000  0.69451100  1
  O  O44  1  0.50022000  0.50000000  0.20111600  1
  O  O45  1  0.90484750  0.25381650  0.41628700  1
  O  O46  1  0.75757350  0.71544250  0.66272500  1
  O  O47  1  0.75757350  0.28455750  0.66272500  1
  O  O48  1  0.33260000  0.50000000  0.90250300  1
  O  O49  1  0.67158300  0.50000000  0.42110000  1
  O  O50  1  0.24777250  0.71406450  0.14536600  1
  O  O51  1  0.24777250  0.28593550  0.14536600  1
  O  O52  1  0.16570200  0.50000000  0.39108500  1
  O  O53  1  0.09123950  0.75138550  0.90342100  1
  O  O54  1  0.01703800  0.50000000  0.12935000  1
  O  O55  1  0.09123950  0.24861450  0.90342100  1
