# generated using pymatgen
data_NiP6(WO8)3
_symmetry_space_group_name_H-M   'P 1'
_cell_length_a   8.75852937
_cell_length_b   8.75852937
_cell_length_c   22.05754478
_cell_angle_alpha   90.00000000
_cell_angle_beta   90.00000000
_cell_angle_gamma   120.00000000
_symmetry_Int_Tables_number   1
_chemical_formula_structural   NiP6(WO8)3
_chemical_formula_sum   'Ni3 P18 W9 O72'
_cell_volume   1465.37973923
_cell_formula_units_Z   3
loop_
 _symmetry_equiv_pos_site_id
 _symmetry_equiv_pos_as_xyz
  1  'x, y, z'
loop_
 _atom_site_type_symbol
 _atom_site_label
 _atom_site_symmetry_multiplicity
 _atom_site_fract_x
 _atom_site_fract_y
 _atom_site_fract_z
 _atom_site_occupancy
  Ni  Ni0  1  0.00000000  0.00000000  0.14136100  1
  Ni  Ni1  1  0.66666667  0.33333333  0.47469433  1
  Ni  Ni2  1  0.33333333  0.66666667  0.80802767  1
  P  P3  1  0.71742800  0.99961200  0.24793900  1
  P  P4  1  0.28218400  0.28257200  0.24793900  1
  P  P5  1  0.00038800  0.71781600  0.24793900  1
  P  P6  1  0.67058700  0.62384700  0.08385100  1
  P  P7  1  0.37615300  0.04674000  0.08385100  1
  P  P8  1  0.95326000  0.32941300  0.08385100  1
  P  P9  1  0.38409467  0.33294533  0.58127233  1
  P  P10  1  0.94885067  0.61590533  0.58127233  1
  P  P11  1  0.66705467  0.05114933  0.58127233  1
  P  P12  1  0.33725367  0.95718033  0.41718433  1
  P  P13  1  0.04281967  0.38007333  0.41718433  1
  P  P14  1  0.61992667  0.66274633  0.41718433  1
  P  P15  1  0.05076133  0.66627867  0.91460567  1
  P  P16  1  0.61551733  0.94923867  0.91460567  1
  P  P17  1  0.33372133  0.38448267  0.91460567  1
  P  P18  1  0.00392033  0.29051367  0.75051767  1
  P  P19  1  0.70948633  0.71340667  0.75051767  1
  P  P20  1  0.28659333  0.99607967  0.75051767  1
  W  W21  1  0.66666667  0.33333333  0.19149033  1
  W  W22  1  0.33333333  0.66666667  0.31028167  1
  W  W23  1  0.33333333  0.66666667  0.02485367  1
  W  W24  1  0.33333333  0.66666667  0.52482367  1
  W  W25  1  0.00000000  0.00000000  0.64361500  1
  W  W26  1  0.00000000  0.00000000  0.35818700  1
  W  W27  1  0.00000000  0.00000000  0.85815700  1
  W  W28  1  0.66666667  0.33333333  0.97694833  1
  W  W29  1  0.66666667  0.33333333  0.69152033  1
  O  O30  1  0.84871800  0.32345500  0.02639800  1
  O  O31  1  0.67654500  0.52526300  0.02639800  1
  O  O32  1  0.69920433  0.16757067  0.24442867  1
  O  O33  1  0.47473700  0.15128200  0.02639800  1
  O  O34  1  0.52928800  0.84406900  0.26049300  1
  O  O35  1  0.79287567  0.96338033  0.19340433  1
  O  O36  1  0.46836633  0.30079567  0.24442867  1
  O  O37  1  0.31478100  0.47071200  0.26049300  1
  O  O38  1  0.15593100  0.68521900  0.26049300  1
  O  O39  1  0.63319567  0.50467433  0.14081533  1
  O  O40  1  0.82954500  0.80030600  0.08713900  1
  O  O41  1  0.49532567  0.12852133  0.14081533  1
  O  O42  1  0.17050467  0.20712433  0.19340433  1
  O  O43  1  0.83242933  0.53163367  0.24442867  1
  O  O44  1  0.03661967  0.82949533  0.19340433  1
  O  O45  1  0.49471867  0.63325533  0.07496433  1
  O  O46  1  0.36674467  0.86146333  0.07496433  1
  O  O47  1  0.19969400  0.02923900  0.08713900  1
  O  O48  1  0.87147867  0.36680433  0.14081533  1
  O  O49  1  0.13853667  0.50528133  0.07496433  1
  O  O50  1  0.19357900  0.16556200  0.30679400  1
  O  O51  1  0.97076100  0.17045500  0.08713900  1
  O  O52  1  0.97198300  0.80642100  0.30679400  1
  O  O53  1  0.83443800  0.02801700  0.30679400  1
  O  O54  1  0.51538467  0.65678833  0.35973133  1
  O  O55  1  0.34321167  0.85859633  0.35973133  1
  O  O56  1  0.36587100  0.50090400  0.57776200  1
  O  O57  1  0.14140367  0.48461533  0.35973133  1
  O  O58  1  0.19595467  0.17740233  0.59382633  1
  O  O59  1  0.45954233  0.29671367  0.52673767  1
  O  O60  1  0.13503300  0.63412900  0.57776200  1
  O  O61  1  0.98144767  0.80404533  0.59382633  1
  O  O62  1  0.82259767  0.01855233  0.59382633  1
  O  O63  1  0.29986233  0.83800767  0.47414867  1
  O  O64  1  0.49621167  0.13363933  0.42047233  1
  O  O65  1  0.16199233  0.46185467  0.47414867  1
  O  O66  1  0.83717133  0.54045767  0.52673767  1
  O  O67  1  0.49909600  0.86496700  0.57776200  1
  O  O68  1  0.70328633  0.16282867  0.52673767  1
  O  O69  1  0.16138533  0.96658867  0.40829767  1
  O  O70  1  0.03341133  0.19479667  0.40829767  1
  O  O71  1  0.86636067  0.36257233  0.42047233  1
  O  O72  1  0.53814533  0.70013767  0.47414867  1
  O  O73  1  0.80520333  0.83861467  0.40829767  1
  O  O74  1  0.86024567  0.49889533  0.64012733  1
  O  O75  1  0.63742767  0.50378833  0.42047233  1
  O  O76  1  0.63864967  0.13975433  0.64012733  1
  O  O77  1  0.50110467  0.36135033  0.64012733  1
  O  O78  1  0.18205133  0.99012167  0.69306467  1
  O  O79  1  0.00987833  0.19192967  0.69306467  1
  O  O80  1  0.03253767  0.83423733  0.91109533  1
  O  O81  1  0.80807033  0.81794867  0.69306467  1
  O  O82  1  0.86262133  0.51073567  0.92715967  1
  O  O83  1  0.12620900  0.63004700  0.86007100  1
  O  O84  1  0.80169967  0.96746233  0.91109533  1
  O  O85  1  0.64811433  0.13737867  0.92715967  1
  O  O86  1  0.48926433  0.35188567  0.92715967  1
  O  O87  1  0.96652900  0.17134100  0.80748200  1
  O  O88  1  0.16287833  0.46697267  0.75380567  1
  O  O89  1  0.82865900  0.79518800  0.80748200  1
  O  O90  1  0.50383800  0.87379100  0.86007100  1
  O  O91  1  0.16576267  0.19830033  0.91109533  1
  O  O92  1  0.36995300  0.49616200  0.86007100  1
  O  O93  1  0.82805200  0.29992200  0.74163100  1
  O  O94  1  0.70007800  0.52813000  0.74163100  1
  O  O95  1  0.53302733  0.69590567  0.75380567  1
  O  O96  1  0.20481200  0.03347100  0.80748200  1
  O  O97  1  0.47187000  0.17194800  0.74163100  1
  O  O98  1  0.52691233  0.83222867  0.97346067  1
  O  O99  1  0.30409433  0.83712167  0.75380567  1
  O  O100  1  0.30531633  0.47308767  0.97346067  1
  O  O101  1  0.16777133  0.69468367  0.97346067  1
