# generated using pymatgen
data_V4GeS8
_symmetry_space_group_name_H-M   'P 1'
_cell_length_a   9.69805000
_cell_length_b   9.69805000
_cell_length_c   9.69805000
_cell_angle_alpha   90.00000000
_cell_angle_beta   90.00000000
_cell_angle_gamma   90.00000000
_symmetry_Int_Tables_number   1
_chemical_formula_structural   V4GeS8
_chemical_formula_sum   'V16 Ge4 S32'
_cell_volume   912.12268415
_cell_formula_units_Z   4
loop_
 _symmetry_equiv_pos_site_id
 _symmetry_equiv_pos_as_xyz
  1  'x, y, z'
loop_
 _atom_site_type_symbol
 _atom_site_label
 _atom_site_symmetry_multiplicity
 _atom_site_fract_x
 _atom_site_fract_y
 _atom_site_fract_z
 _atom_site_occupancy
  V  V0  1  0.35407500  0.35407500  0.14592500  1
  V  V1  1  0.14592500  0.35407500  0.35407500  1
  V  V2  1  0.35407500  0.14592500  0.35407500  1
  V  V3  1  0.14592500  0.14592500  0.14592500  1
  V  V4  1  0.35407500  0.85407500  0.64592500  1
  V  V5  1  0.14592500  0.85407500  0.85407500  1
  V  V6  1  0.35407500  0.64592500  0.85407500  1
  V  V7  1  0.14592500  0.64592500  0.64592500  1
  V  V8  1  0.85407500  0.35407500  0.64592500  1
  V  V9  1  0.64592500  0.35407500  0.85407500  1
  V  V10  1  0.85407500  0.14592500  0.85407500  1
  V  V11  1  0.64592500  0.14592500  0.64592500  1
  V  V12  1  0.85407500  0.85407500  0.14592500  1
  V  V13  1  0.64592500  0.85407500  0.35407500  1
  V  V14  1  0.85407500  0.64592500  0.35407500  1
  V  V15  1  0.64592500  0.64592500  0.14592500  1
  Ge  Ge16  1  0.25000000  0.25000000  0.75000000  1
  Ge  Ge17  1  0.25000000  0.75000000  0.25000000  1
  Ge  Ge18  1  0.75000000  0.25000000  0.25000000  1
  Ge  Ge19  1  0.75000000  0.75000000  0.75000000  1
  S  S20  1  0.87958367  0.37958367  0.87958367  1
  S  S21  1  0.12041633  0.37958367  0.12041633  1
  S  S22  1  0.38665700  0.38665700  0.88665700  1
  S  S23  1  0.11334300  0.38665700  0.61334300  1
  S  S24  1  0.37958367  0.12041633  0.12041633  1
  S  S25  1  0.62041633  0.12041633  0.87958367  1
  S  S26  1  0.38665700  0.11334300  0.61334300  1
  S  S27  1  0.11334300  0.11334300  0.88665700  1
  S  S28  1  0.87958367  0.87958367  0.37958367  1
  S  S29  1  0.12041633  0.87958367  0.62041633  1
  S  S30  1  0.38665700  0.88665700  0.38665700  1
  S  S31  1  0.11334300  0.88665700  0.11334300  1
  S  S32  1  0.37958367  0.62041633  0.62041633  1
  S  S33  1  0.62041633  0.62041633  0.37958367  1
  S  S34  1  0.38665700  0.61334300  0.11334300  1
  S  S35  1  0.11334300  0.61334300  0.38665700  1
  S  S36  1  0.37958367  0.37958367  0.37958367  1
  S  S37  1  0.62041633  0.37958367  0.62041633  1
  S  S38  1  0.88665700  0.38665700  0.38665700  1
  S  S39  1  0.61334300  0.38665700  0.11334300  1
  S  S40  1  0.87958367  0.12041633  0.62041633  1
  S  S41  1  0.12041633  0.12041633  0.37958367  1
  S  S42  1  0.88665700  0.11334300  0.11334300  1
  S  S43  1  0.61334300  0.11334300  0.38665700  1
  S  S44  1  0.37958367  0.87958367  0.87958367  1
  S  S45  1  0.62041633  0.87958367  0.12041633  1
  S  S46  1  0.88665700  0.88665700  0.88665700  1
  S  S47  1  0.61334300  0.88665700  0.61334300  1
  S  S48  1  0.87958367  0.62041633  0.12041633  1
  S  S49  1  0.12041633  0.62041633  0.87958367  1
  S  S50  1  0.88665700  0.61334300  0.61334300  1
  S  S51  1  0.61334300  0.61334300  0.88665700  1
