# generated using pymatgen
data_LiScVO4
_symmetry_space_group_name_H-M   'P 1'
_cell_length_a   6.01325000
_cell_length_b   6.29201062
_cell_length_c   8.49259256
_cell_angle_alpha   90.00000000
_cell_angle_beta   90.00000000
_cell_angle_gamma   90.00000000
_symmetry_Int_Tables_number   1
_chemical_formula_structural   LiScVO4
_chemical_formula_sum   'Li4 Sc4 V4 O16'
_cell_volume   321.32091575
_cell_formula_units_Z   4
loop_
 _symmetry_equiv_pos_site_id
 _symmetry_equiv_pos_as_xyz
  1  'x, y, z'
loop_
 _atom_site_type_symbol
 _atom_site_label
 _atom_site_symmetry_multiplicity
 _atom_site_fract_x
 _atom_site_fract_y
 _atom_site_fract_z
 _atom_site_occupancy
  Li  Li0  1  0.00000000  0.75000000  0.38114275  1
  Li  Li1  1  0.50000000  0.75000000  0.11885725  1
  Li  Li2  1  0.50000000  0.25000000  0.88114275  1
  Li  Li3  1  0.00000000  0.25000000  0.61885725  1
  Sc  Sc4  1  0.50000000  0.00000000  0.50000000  1
  Sc  Sc5  1  0.50000000  0.50000000  0.50000000  1
  Sc  Sc6  1  0.00000000  0.50000000  0.00000000  1
  Sc  Sc7  1  0.00000000  0.00000000  0.00000000  1
  V  V8  1  0.75000000  0.75000000  0.75000000  1
  V  V9  1  0.25000000  0.75000000  0.75000000  1
  V  V10  1  0.25000000  0.25000000  0.25000000  1
  V  V11  1  0.75000000  0.25000000  0.25000000  1
  O  O12  1  0.76699600  0.75000000  0.97518575  1
  O  O13  1  0.26699600  0.75000000  0.52481425  1
  O  O14  1  0.23300400  0.75000000  0.97518575  1
  O  O15  1  0.73300400  0.75000000  0.52481425  1
  O  O16  1  0.50000000  0.53647600  0.74583575  1
  O  O17  1  0.50000000  0.96352400  0.74583575  1
  O  O18  1  0.00000000  0.53647600  0.75416425  1
  O  O19  1  0.00000000  0.96352400  0.75416425  1
  O  O20  1  0.26699600  0.25000000  0.47518575  1
  O  O21  1  0.76699600  0.25000000  0.02481425  1
  O  O22  1  0.73300400  0.25000000  0.47518575  1
  O  O23  1  0.23300400  0.25000000  0.02481425  1
  O  O24  1  0.00000000  0.03647600  0.24583575  1
  O  O25  1  0.00000000  0.46352400  0.24583575  1
  O  O26  1  0.50000000  0.03647600  0.25416425  1
  O  O27  1  0.50000000  0.46352400  0.25416425  1
