# generated using pymatgen
data_Li2Cr5(Si2O7)2
_symmetry_space_group_name_H-M   'P 1'
_cell_length_a   5.61466475
_cell_length_b   7.62999089
_cell_length_c   8.04056234
_cell_angle_alpha   113.88115851
_cell_angle_beta   91.20638845
_cell_angle_gamma   105.77852543
_symmetry_Int_Tables_number   1
_chemical_formula_structural   Li2Cr5(Si2O7)2
_chemical_formula_sum   'Li2 Cr5 Si4 O14'
_cell_volume   299.71367967
_cell_formula_units_Z   1
loop_
 _symmetry_equiv_pos_site_id
 _symmetry_equiv_pos_as_xyz
  1  'x, y, z'
loop_
 _atom_site_type_symbol
 _atom_site_label
 _atom_site_symmetry_multiplicity
 _atom_site_fract_x
 _atom_site_fract_y
 _atom_site_fract_z
 _atom_site_occupancy
  Li  Li0  1  0.22796500  0.10959200  0.45593450  1
  Li  Li1  1  0.77203500  0.89040800  0.54406550  1
  Cr  Cr2  1  0.00000000  0.00000000  0.00000000  1
  Cr  Cr3  1  0.07391250  0.38575400  0.81032800  1
  Cr  Cr4  1  0.92608750  0.61424600  0.18967200  1
  Cr  Cr5  1  0.66677900  0.57132200  0.71088450  1
  Cr  Cr6  1  0.33322100  0.42867800  0.28911550  1
  Si  Si7  1  0.49063400  0.22616500  0.85660050  1
  Si  Si8  1  0.50936600  0.77383500  0.14339950  1
  Si  Si9  1  0.79210400  0.20635100  0.39442000  1
  Si  Si10  1  0.20789600  0.79364900  0.60558000  1
  O  O11  1  0.88380000  0.16727300  0.56733450  1
  O  O12  1  0.11620000  0.83272700  0.43266550  1
  O  O13  1  0.77929700  0.35225500  0.95345400  1
  O  O14  1  0.22070300  0.64774500  0.04654600  1
  O  O15  1  0.53649850  0.01328400  0.27144450  1
  O  O16  1  0.46350150  0.98671600  0.72855550  1
  O  O17  1  0.40259550  0.32421500  0.72419200  1
  O  O18  1  0.59740450  0.67578500  0.27580800  1
  O  O19  1  0.02608650  0.18989300  0.27061100  1
  O  O20  1  0.97391350  0.81010700  0.72938900  1
  O  O21  1  0.70019700  0.40339700  0.44430700  1
  O  O22  1  0.29980300  0.59660300  0.55569300  1
  O  O23  1  0.30138000  0.23286700  0.01089900  1
  O  O24  1  0.69862000  0.76713300  0.98910100  1
