# generated using pymatgen
data_LiMnPO4
_symmetry_space_group_name_H-M   'P 1'
_cell_length_a   5.12685501
_cell_length_b   8.23331400
_cell_length_c   9.13788401
_cell_angle_alpha   90.00000000
_cell_angle_beta   90.00000000
_cell_angle_gamma   90.00000000
_symmetry_Int_Tables_number   1
_chemical_formula_structural   LiMnPO4
_chemical_formula_sum   'Li4 Mn4 P4 O16'
_cell_volume   385.71928706
_cell_formula_units_Z   4
loop_
 _symmetry_equiv_pos_site_id
 _symmetry_equiv_pos_as_xyz
  1  'x, y, z'
loop_
 _atom_site_type_symbol
 _atom_site_label
 _atom_site_symmetry_multiplicity
 _atom_site_fract_x
 _atom_site_fract_y
 _atom_site_fract_z
 _atom_site_occupancy
  Li  Li0  1  0.91187500  0.05739350  0.60329050  1
  Li  Li1  1  0.41187500  0.44260650  0.10329050  1
  Li  Li2  1  0.91187500  0.55739350  0.89670950  1
  Li  Li3  1  0.41187500  0.94260650  0.39670950  1
  Mn  Mn4  1  0.51599500  0.33581650  0.52534850  1
  Mn  Mn5  1  0.51599500  0.83581650  0.97465150  1
  Mn  Mn6  1  0.01599500  0.16418350  0.02534850  1
  Mn  Mn7  1  0.01599500  0.66418350  0.47465150  1
  P  P8  1  0.56617100  0.23245350  0.86294550  1
  P  P9  1  0.06617100  0.26754650  0.36294550  1
  P  P10  1  0.56617100  0.73245350  0.63705450  1
  P  P11  1  0.06617100  0.76754650  0.13705450  1
  O  O12  1  0.65528800  0.07315150  0.94348550  1
  O  O13  1  0.15528800  0.42684850  0.44348550  1
  O  O14  1  0.65528800  0.57315150  0.55651450  1
  O  O15  1  0.15528800  0.92684850  0.05651450  1
  O  O16  1  0.19877300  0.12921150  0.45389150  1
  O  O17  1  0.69877300  0.37078850  0.95389150  1
  O  O18  1  0.19877300  0.62921150  0.04610850  1
  O  O19  1  0.69877300  0.87078850  0.54610850  1
  O  O20  1  0.26760600  0.25268550  0.86333050  1
  O  O21  1  0.76760600  0.24731450  0.36333050  1
  O  O22  1  0.26760600  0.75268550  0.63666950  1
  O  O23  1  0.76760600  0.74731450  0.13666950  1
  O  O24  1  0.67613200  0.22260750  0.70484450  1
  O  O25  1  0.17613200  0.27739250  0.20484450  1
  O  O26  1  0.67613200  0.72260750  0.79515550  1
  O  O27  1  0.17613200  0.77739250  0.29515550  1
