# generated using pymatgen
data_CrCo3O8
_symmetry_space_group_name_H-M   'P 1'
_cell_length_a   5.62932629
_cell_length_b   5.62932629
_cell_length_c   8.83765000
_cell_angle_alpha   90.00000000
_cell_angle_beta   90.00000000
_cell_angle_gamma   120.00000000
_symmetry_Int_Tables_number   1
_chemical_formula_structural   CrCo3O8
_chemical_formula_sum   'Cr2 Co6 O16'
_cell_volume   242.53826958
_cell_formula_units_Z   2
loop_
 _symmetry_equiv_pos_site_id
 _symmetry_equiv_pos_as_xyz
  1  'x, y, z'
loop_
 _atom_site_type_symbol
 _atom_site_label
 _atom_site_symmetry_multiplicity
 _atom_site_fract_x
 _atom_site_fract_y
 _atom_site_fract_z
 _atom_site_occupancy
  Cr  Cr0  1  0.66666667  0.33333333  0.99014300  1
  Cr  Cr1  1  0.33333333  0.66666667  0.49014300  1
  Co  Co2  1  0.83265600  0.66531200  0.70938000  1
  Co  Co3  1  0.33468800  0.16734400  0.70938000  1
  Co  Co4  1  0.83265600  0.16734400  0.70938000  1
  Co  Co5  1  0.16734400  0.83265600  0.20938000  1
  Co  Co6  1  0.66531200  0.83265600  0.20938000  1
  Co  Co7  1  0.16734400  0.33468800  0.20938000  1
  O  O8  1  0.83574300  0.67148600  0.10697300  1
  O  O9  1  0.52040150  0.47959850  0.83405600  1
  O  O10  1  0.66666667  0.33333333  0.60131100  1
  O  O11  1  0.00000000  0.00000000  0.81605500  1
  O  O12  1  0.00000000  0.00000000  0.31605500  1
  O  O13  1  0.32851400  0.16425700  0.10697300  1
  O  O14  1  0.95919700  0.47959850  0.83405600  1
  O  O15  1  0.52040150  0.04080300  0.83405600  1
  O  O16  1  0.16425700  0.83574300  0.60697300  1
  O  O17  1  0.83574300  0.16425700  0.10697300  1
  O  O18  1  0.47959850  0.95919700  0.33405600  1
  O  O19  1  0.04080300  0.52040150  0.33405600  1
  O  O20  1  0.33333333  0.66666667  0.10131100  1
  O  O21  1  0.67148600  0.83574300  0.60697300  1
  O  O22  1  0.47959850  0.52040150  0.33405600  1
  O  O23  1  0.16425700  0.32851400  0.60697300  1
