# generated using pymatgen
data_Na3(CoO2)5
_symmetry_space_group_name_H-M   'P 1'
_cell_length_a   4.91452569
_cell_length_b   14.29476226
_cell_length_c   5.76899512
_cell_angle_alpha   90.00000000
_cell_angle_beta   106.73522301
_cell_angle_gamma   90.00000000
_symmetry_Int_Tables_number   1
_chemical_formula_structural   Na3(CoO2)5
_chemical_formula_sum   'Na6 Co10 O20'
_cell_volume   388.11779987
_cell_formula_units_Z   2
loop_
 _symmetry_equiv_pos_site_id
 _symmetry_equiv_pos_as_xyz
  1  'x, y, z'
loop_
 _atom_site_type_symbol
 _atom_site_label
 _atom_site_symmetry_multiplicity
 _atom_site_fract_x
 _atom_site_fract_y
 _atom_site_fract_z
 _atom_site_occupancy
  Na  Na0  1  0.93601050  0.50000000  0.49749850  1
  Na  Na1  1  0.43244775  0.80147975  0.49681000  1
  Na  Na2  1  0.93244775  0.69852025  0.49681000  1
  Na  Na3  1  0.43601050  0.00000000  0.49749850  1
  Na  Na4  1  0.93244775  0.30147975  0.49681000  1
  Na  Na5  1  0.43244775  0.19852025  0.49681000  1
  Co  Co6  1  0.10227725  0.50000000  0.00849500  1
  Co  Co7  1  0.09801150  0.89966750  0.99483650  1
  Co  Co8  1  0.59801150  0.60033250  0.99483650  1
  Co  Co9  1  0.60234050  0.80010750  0.00608950  1
  Co  Co10  1  0.10234050  0.69989250  0.00608950  1
  Co  Co11  1  0.60227725  0.00000000  0.00849500  1
  Co  Co12  1  0.59801150  0.39966750  0.99483650  1
  Co  Co13  1  0.09801150  0.10033250  0.99483650  1
  Co  Co14  1  0.10234050  0.30010750  0.00608950  1
  Co  Co15  1  0.60234050  0.19989250  0.00608950  1
  O  O16  1  0.50044975  0.50000000  0.17338300  1
  O  O17  1  0.70950525  0.50000000  0.82554600  1
  O  O18  1  0.99982675  0.80148475  0.18246700  1
  O  O19  1  0.49982675  0.69851525  0.18246700  1
  O  O20  1  0.48548250  0.89953300  0.18220350  1
  O  O21  1  0.98548250  0.60046700  0.18220350  1
  O  O22  1  0.20479975  0.40018125  0.82444100  1
  O  O23  1  0.20479975  0.59981875  0.82444100  1
  O  O24  1  0.70697100  0.70073450  0.82269150  1
  O  O25  1  0.20697100  0.79926550  0.82269150  1
  O  O26  1  0.00044975  0.00000000  0.17338300  1
  O  O27  1  0.20950525  0.00000000  0.82554600  1
  O  O28  1  0.49982675  0.30148475  0.18246700  1
  O  O29  1  0.99982675  0.19851525  0.18246700  1
  O  O30  1  0.98548250  0.39953300  0.18220350  1
  O  O31  1  0.48548250  0.10046700  0.18220350  1
  O  O32  1  0.70479975  0.90018125  0.82444100  1
  O  O33  1  0.70479975  0.09981875  0.82444100  1
  O  O34  1  0.20697100  0.20073450  0.82269150  1
  O  O35  1  0.70697100  0.29926550  0.82269150  1
