# generated using pymatgen
data_LiVSnO4
_symmetry_space_group_name_H-M   'P 1'
_cell_length_a   6.04975000
_cell_length_b   6.27855722
_cell_length_c   8.90521574
_cell_angle_alpha   90.00000000
_cell_angle_beta   90.00000000
_cell_angle_gamma   90.00000000
_symmetry_Int_Tables_number   1
_chemical_formula_structural   LiVSnO4
_chemical_formula_sum   'Li4 V4 Sn4 O16'
_cell_volume   338.25305702
_cell_formula_units_Z   4
loop_
 _symmetry_equiv_pos_site_id
 _symmetry_equiv_pos_as_xyz
  1  'x, y, z'
loop_
 _atom_site_type_symbol
 _atom_site_label
 _atom_site_symmetry_multiplicity
 _atom_site_fract_x
 _atom_site_fract_y
 _atom_site_fract_z
 _atom_site_occupancy
  Li  Li0  1  0.50000000  0.75000000  0.37274100  1
  Li  Li1  1  0.00000000  0.75000000  0.12725900  1
  Li  Li2  1  0.00000000  0.25000000  0.87274100  1
  Li  Li3  1  0.50000000  0.25000000  0.62725900  1
  V  V4  1  0.25000000  0.75000000  0.75000000  1
  V  V5  1  0.75000000  0.75000000  0.75000000  1
  V  V6  1  0.75000000  0.25000000  0.25000000  1
  V  V7  1  0.25000000  0.25000000  0.25000000  1
  Sn  Sn8  1  0.50000000  0.00000000  0.00000000  1
  Sn  Sn9  1  0.00000000  0.00000000  0.50000000  1
  Sn  Sn10  1  0.00000000  0.50000000  0.50000000  1
  Sn  Sn11  1  0.50000000  0.50000000  0.00000000  1
  O  O12  1  0.76713900  0.75000000  0.51039400  1
  O  O13  1  0.23286100  0.75000000  0.51039400  1
  O  O14  1  0.26713900  0.75000000  0.98960600  1
  O  O15  1  0.73286100  0.75000000  0.98960600  1
  O  O16  1  0.00000000  0.53081600  0.73594100  1
  O  O17  1  0.00000000  0.96918400  0.73594100  1
  O  O18  1  0.50000000  0.96918400  0.76405900  1
  O  O19  1  0.50000000  0.53081600  0.76405900  1
  O  O20  1  0.26713900  0.25000000  0.01039400  1
  O  O21  1  0.73286100  0.25000000  0.01039400  1
  O  O22  1  0.76713900  0.25000000  0.48960600  1
  O  O23  1  0.23286100  0.25000000  0.48960600  1
  O  O24  1  0.50000000  0.03081600  0.23594100  1
  O  O25  1  0.50000000  0.46918400  0.23594100  1
  O  O26  1  0.00000000  0.46918400  0.26405900  1
  O  O27  1  0.00000000  0.03081600  0.26405900  1
