# generated using pymatgen
data_Li2MnOF3
_symmetry_space_group_name_H-M   'P 1'
_cell_length_a   9.56175601
_cell_length_b   6.29516025
_cell_length_c   6.06310234
_cell_angle_alpha   90.00000000
_cell_angle_beta   127.34803597
_cell_angle_gamma   90.00000000
_symmetry_Int_Tables_number   1
_chemical_formula_structural   Li2MnOF3
_chemical_formula_sum   'Li8 Mn4 O4 F12'
_cell_volume   290.12652499
_cell_formula_units_Z   4
loop_
 _symmetry_equiv_pos_site_id
 _symmetry_equiv_pos_as_xyz
  1  'x, y, z'
loop_
 _atom_site_type_symbol
 _atom_site_label
 _atom_site_symmetry_multiplicity
 _atom_site_fract_x
 _atom_site_fract_y
 _atom_site_fract_z
 _atom_site_occupancy
  Li  Li0  1  0.24754000  0.22875000  0.49520900  1
  Li  Li1  1  0.00855100  0.50000000  0.50917600  1
  Li  Li2  1  0.88880800  0.00000000  0.13689100  1
  Li  Li3  1  0.24754000  0.77125000  0.49520900  1
  Li  Li4  1  0.74754000  0.72875000  0.49520900  1
  Li  Li5  1  0.50855100  0.00000000  0.50917600  1
  Li  Li6  1  0.38880800  0.50000000  0.13689100  1
  Li  Li7  1  0.74754000  0.27125000  0.49520900  1
  Mn  Mn8  1  0.01045100  0.50000000  0.99854800  1
  Mn  Mn9  1  0.04049650  0.00000000  0.81555600  1
  Mn  Mn10  1  0.51045100  0.00000000  0.99854800  1
  Mn  Mn11  1  0.54049650  0.50000000  0.81555600  1
  O  O12  1  0.51186800  0.20331300  0.77121800  1
  O  O13  1  0.01186800  0.29668700  0.77121800  1
  O  O14  1  0.01186800  0.70331300  0.77121800  1
  O  O15  1  0.51186800  0.79668700  0.77121800  1
  F  F16  1  0.79742700  0.00000000  0.33560500  1
  F  F17  1  0.80264300  0.00000000  0.76243200  1
  F  F18  1  0.00118450  0.70799050  0.23312500  1
  F  F19  1  0.50118450  0.79200950  0.23312500  1
  F  F20  1  0.20864750  0.00000000  0.70492500  1
  F  F21  1  0.22121250  0.00000000  0.23787600  1
  F  F22  1  0.29742700  0.50000000  0.33560500  1
  F  F23  1  0.30264300  0.50000000  0.76243200  1
  F  F24  1  0.50118450  0.20799050  0.23312500  1
  F  F25  1  0.00118450  0.29200950  0.23312500  1
  F  F26  1  0.70864750  0.50000000  0.70492500  1
  F  F27  1  0.72121250  0.50000000  0.23787600  1
