# generated using pymatgen
data_Er2(Ga3Co)3
_symmetry_space_group_name_H-M   'P 1'
_cell_length_a   7.35614200
_cell_length_b   12.68876200
_cell_length_c   9.35787600
_cell_angle_alpha   90.00000000
_cell_angle_beta   90.00000000
_cell_angle_gamma   90.00000000
_symmetry_Int_Tables_number   1
_chemical_formula_structural   Er2(Ga3Co)3
_chemical_formula_sum   'Er8 Ga36 Co12'
_cell_volume   873.46728144
_cell_formula_units_Z   4
loop_
 _symmetry_equiv_pos_site_id
 _symmetry_equiv_pos_as_xyz
  1  'x, y, z'
loop_
 _atom_site_type_symbol
 _atom_site_label
 _atom_site_symmetry_multiplicity
 _atom_site_fract_x
 _atom_site_fract_y
 _atom_site_fract_z
 _atom_site_occupancy
  Er  Er0  1  0.66706500  0.83589900  0.75000000  1
  Er  Er1  1  0.33293500  0.16410100  0.25000000  1
  Er  Er2  1  0.33293500  0.83589900  0.25000000  1
  Er  Er3  1  0.66706500  0.16410100  0.75000000  1
  Er  Er4  1  0.16706500  0.33589900  0.75000000  1
  Er  Er5  1  0.83293500  0.66410100  0.25000000  1
  Er  Er6  1  0.83293500  0.33589900  0.25000000  1
  Er  Er7  1  0.16706500  0.66410100  0.75000000  1
  Ga  Ga8  1  0.55586200  0.60750500  0.75000000  1
  Ga  Ga9  1  0.44413800  0.39249500  0.25000000  1
  Ga  Ga10  1  0.44413800  0.60750500  0.25000000  1
  Ga  Ga11  1  0.55586200  0.39249500  0.75000000  1
  Ga  Ga12  1  0.62039200  0.00000000  0.25000000  1
  Ga  Ga13  1  0.37960800  0.00000000  0.75000000  1
  Ga  Ga14  1  0.16670000  0.00000000  0.05909900  1
  Ga  Ga15  1  0.83330000  0.00000000  0.55909900  1
  Ga  Ga16  1  0.83330000  0.00000000  0.94090100  1
  Ga  Ga17  1  0.16670000  0.00000000  0.44090100  1
  Ga  Ga18  1  0.66689700  0.83260000  0.07326200  1
  Ga  Ga19  1  0.33310300  0.16740000  0.57326200  1
  Ga  Ga20  1  0.33310300  0.83260000  0.92673800  1
  Ga  Ga21  1  0.66689700  0.16740000  0.42673800  1
  Ga  Ga22  1  0.33310300  0.16740000  0.92673800  1
  Ga  Ga23  1  0.66689700  0.83260000  0.42673800  1
  Ga  Ga24  1  0.66689700  0.16740000  0.07326200  1
  Ga  Ga25  1  0.33310300  0.83260000  0.57326200  1
  Ga  Ga26  1  0.05586200  0.10750500  0.75000000  1
  Ga  Ga27  1  0.94413800  0.89249500  0.25000000  1
  Ga  Ga28  1  0.94413800  0.10750500  0.25000000  1
  Ga  Ga29  1  0.05586200  0.89249500  0.75000000  1
  Ga  Ga30  1  0.12039200  0.50000000  0.25000000  1
  Ga  Ga31  1  0.87960800  0.50000000  0.75000000  1
  Ga  Ga32  1  0.66670000  0.50000000  0.05909900  1
  Ga  Ga33  1  0.33330000  0.50000000  0.55909900  1
  Ga  Ga34  1  0.33330000  0.50000000  0.94090100  1
  Ga  Ga35  1  0.66670000  0.50000000  0.44090100  1
  Ga  Ga36  1  0.16689700  0.33260000  0.07326200  1
  Ga  Ga37  1  0.83310300  0.66740000  0.57326200  1
  Ga  Ga38  1  0.83310300  0.33260000  0.92673800  1
  Ga  Ga39  1  0.16689700  0.66740000  0.42673800  1
  Ga  Ga40  1  0.83310300  0.66740000  0.92673800  1
  Ga  Ga41  1  0.16689700  0.33260000  0.42673800  1
  Ga  Ga42  1  0.16689700  0.66740000  0.07326200  1
  Ga  Ga43  1  0.83310300  0.33260000  0.57326200  1
  Co  Co44  1  0.50000000  0.67118600  0.00000000  1
  Co  Co45  1  0.50000000  0.00000000  0.50000000  1
  Co  Co46  1  0.50000000  0.00000000  0.00000000  1
  Co  Co47  1  0.50000000  0.32881400  0.50000000  1
  Co  Co48  1  0.50000000  0.32881400  0.00000000  1
  Co  Co49  1  0.50000000  0.67118600  0.50000000  1
  Co  Co50  1  0.00000000  0.17118600  0.00000000  1
  Co  Co51  1  0.00000000  0.50000000  0.50000000  1
  Co  Co52  1  0.00000000  0.50000000  0.00000000  1
  Co  Co53  1  0.00000000  0.82881400  0.50000000  1
  Co  Co54  1  0.00000000  0.82881400  0.00000000  1
  Co  Co55  1  0.00000000  0.17118600  0.50000000  1
