# generated using pymatgen
data_Ti3Co2P6WO24
_symmetry_space_group_name_H-M   'P 1'
_cell_length_a   8.70901229
_cell_length_b   8.70901229
_cell_length_c   21.09999009
_cell_angle_alpha   90.00000000
_cell_angle_beta   90.00000000
_cell_angle_gamma   120.00000000
_symmetry_Int_Tables_number   1
_chemical_formula_structural   Ti3Co2P6WO24
_chemical_formula_sum   'Ti9 Co6 P18 W3 O72'
_cell_volume   1385.95998016
_cell_formula_units_Z   3
loop_
 _symmetry_equiv_pos_site_id
 _symmetry_equiv_pos_as_xyz
  1  'x, y, z'
loop_
 _atom_site_type_symbol
 _atom_site_label
 _atom_site_symmetry_multiplicity
 _atom_site_fract_x
 _atom_site_fract_y
 _atom_site_fract_z
 _atom_site_occupancy
  Ti  Ti0  1  0.00000000  0.00000000  0.35600500  1
  Ti  Ti1  1  0.00000000  0.00000000  0.14259233  1
  Ti  Ti2  1  0.00000000  0.00000000  0.64371667  1
  Ti  Ti3  1  0.66666667  0.33333333  0.68933833  1
  Ti  Ti4  1  0.66666667  0.33333333  0.47592567  1
  Ti  Ti5  1  0.66666667  0.33333333  0.97705000  1
  Ti  Ti6  1  0.33333333  0.66666667  0.02267167  1
  Ti  Ti7  1  0.33333333  0.66666667  0.80925900  1
  Ti  Ti8  1  0.33333333  0.66666667  0.31038333  1
  Co  Co9  1  0.00000000  0.00000000  0.00482500  1
  Co  Co10  1  0.00000000  0.00000000  0.49942467  1
  Co  Co11  1  0.66666667  0.33333333  0.33815833  1
  Co  Co12  1  0.66666667  0.33333333  0.83275800  1
  Co  Co13  1  0.33333333  0.66666667  0.67149167  1
  Co  Co14  1  0.33333333  0.66666667  0.16609133  1
  P  P15  1  0.62961333  0.96169567  0.41565967  1
  P  P16  1  0.03830433  0.66791767  0.41565967  1
  P  P17  1  0.33208233  0.37038667  0.41565967  1
  P  P18  1  0.67221267  0.62629733  0.58381733  1
  P  P19  1  0.95408467  0.32778733  0.58381733  1
  P  P20  1  0.37370267  0.04591533  0.58381733  1
  P  P21  1  0.29628000  0.29502900  0.74899300  1
  P  P22  1  0.70497100  0.00125100  0.74899300  1
  P  P23  1  0.99874900  0.70372000  0.74899300  1
  P  P24  1  0.33887933  0.95963067  0.91715067  1
  P  P25  1  0.62075133  0.66112067  0.91715067  1
  P  P26  1  0.04036933  0.37924867  0.91715067  1
  P  P27  1  0.96294667  0.62836233  0.08232633  1
  P  P28  1  0.37163767  0.33458433  0.08232633  1
  P  P29  1  0.66541567  0.03705333  0.08232633  1
  P  P30  1  0.00554600  0.29296400  0.25048400  1
  P  P31  1  0.28741800  0.99445400  0.25048400  1
  P  P32  1  0.70703600  0.71258200  0.25048400  1
  W  W33  1  0.00000000  0.00000000  0.86062200  1
  W  W34  1  0.66666667  0.33333333  0.19395533  1
  W  W35  1  0.33333333  0.66666667  0.52728867  1
  O  O36  1  0.81280000  0.00344400  0.68987700  1
  O  O37  1  0.99655600  0.80935600  0.68987700  1
  O  O38  1  0.19064400  0.18720000  0.68987700  1
  O  O39  1  0.64937800  0.14954100  0.40925500  1
  O  O40  1  0.54029600  0.87151000  0.47670400  1
  O  O41  1  0.81902133  0.98500667  0.41829267  1
  O  O42  1  0.85045900  0.49983700  0.40925500  1
  O  O43  1  0.01499333  0.83401467  0.41829267  1
  O  O44  1  0.99882433  0.18922767  0.18992167  1
  O  O45  1  0.16598533  0.18097867  0.41829267  1
  O  O46  1  0.50676933  0.64479367  0.59458167  1
  O  O47  1  0.19040333  0.00117567  0.18992167  1
  O  O48  1  0.12849000  0.66878600  0.47670400  1
  O  O49  1  0.50016300  0.35062200  0.40925500  1
  O  O50  1  0.84079833  0.81301367  0.57744867  1
  O  O51  1  0.33121400  0.45970400  0.47670400  1
  O  O52  1  0.97221533  0.15920167  0.57744867  1
  O  O53  1  0.13802433  0.49323067  0.59458167  1
  O  O54  1  0.18698633  0.02778467  0.57744867  1
  O  O55  1  0.81077233  0.80959667  0.18992167  1
  O  O56  1  0.35520633  0.86197567  0.59458167  1
  O  O57  1  0.80787233  0.82310467  0.30870967  1
  O  O58  1  0.01523233  0.19212767  0.30870967  1
  O  O59  1  0.17689533  0.98476767  0.30870967  1
  O  O60  1  0.47946667  0.33677733  0.02321033  1
  O  O61  1  0.66322267  0.14268933  0.02321033  1
  O  O62  1  0.85731067  0.52053333  0.02321033  1
  O  O63  1  0.31604467  0.48287433  0.74258833  1
  O  O64  1  0.20696267  0.20484333  0.81003733  1
  O  O65  1  0.48568800  0.31834000  0.75162600  1
  O  O66  1  0.51712567  0.83317033  0.74258833  1
  O  O67  1  0.68166000  0.16734800  0.75162600  1
  O  O68  1  0.66549100  0.52256100  0.52325500  1
  O  O69  1  0.83265200  0.51431200  0.75162600  1
  O  O70  1  0.17343600  0.97812700  0.92791500  1
  O  O71  1  0.85707000  0.33450900  0.52325500  1
  O  O72  1  0.79515667  0.00211933  0.81003733  1
  O  O73  1  0.16682967  0.68395533  0.74258833  1
  O  O74  1  0.50746500  0.14634700  0.91078200  1
  O  O75  1  0.99788067  0.79303733  0.81003733  1
  O  O76  1  0.63888200  0.49253500  0.91078200  1
  O  O77  1  0.80469100  0.82656400  0.92791500  1
  O  O78  1  0.85365300  0.36111800  0.91078200  1
  O  O79  1  0.47743900  0.14293000  0.52325500  1
  O  O80  1  0.02187300  0.19530900  0.92791500  1
  O  O81  1  0.47453900  0.15643800  0.64204300  1
  O  O82  1  0.68189900  0.52546100  0.64204300  1
  O  O83  1  0.84356200  0.31810100  0.64204300  1
  O  O84  1  0.14613333  0.67011067  0.35654367  1
  O  O85  1  0.32988933  0.47602267  0.35654367  1
  O  O86  1  0.52397733  0.85386667  0.35654367  1
  O  O87  1  0.98271133  0.81620767  0.07592167  1
  O  O88  1  0.87362933  0.53817667  0.14337067  1
  O  O89  1  0.15235467  0.65167333  0.08495933  1
  O  O90  1  0.18379233  0.16650367  0.07592167  1
  O  O91  1  0.34832667  0.50068133  0.08495933  1
  O  O92  1  0.33215767  0.85589433  0.85658833  1
  O  O93  1  0.49931867  0.84764533  0.08495933  1
  O  O94  1  0.84010267  0.31146033  0.26124833  1
  O  O95  1  0.52373667  0.66784233  0.85658833  1
  O  O96  1  0.46182333  0.33545267  0.14337067  1
  O  O97  1  0.83349633  0.01728867  0.07592167  1
  O  O98  1  0.17413167  0.47968033  0.24411533  1
  O  O99  1  0.66454733  0.12637067  0.14337067  1
  O  O100  1  0.30554867  0.82586833  0.24411533  1
  O  O101  1  0.47135767  0.15989733  0.26124833  1
  O  O102  1  0.52031967  0.69445133  0.24411533  1
  O  O103  1  0.14410567  0.47626333  0.85658833  1
  O  O104  1  0.68853967  0.52864233  0.26124833  1
  O  O105  1  0.14120567  0.48977133  0.97537633  1
  O  O106  1  0.34856567  0.85879433  0.97537633  1
  O  O107  1  0.51022867  0.65143433  0.97537633  1
