# generated using pymatgen
data_Li2Cr2NiO6
_symmetry_space_group_name_H-M   'P 1'
_cell_length_a   13.00593434
_cell_length_b   8.75643734
_cell_length_c   5.93029647
_cell_angle_alpha   90.00000000
_cell_angle_beta   104.26468842
_cell_angle_gamma   90.00000000
_symmetry_Int_Tables_number   1
_chemical_formula_structural   Li2Cr2NiO6
_chemical_formula_sum   'Li12 Cr12 Ni6 O36'
_cell_volume   654.55232721
_cell_formula_units_Z   6
loop_
 _symmetry_equiv_pos_site_id
 _symmetry_equiv_pos_as_xyz
  1  'x, y, z'
loop_
 _atom_site_type_symbol
 _atom_site_label
 _atom_site_symmetry_multiplicity
 _atom_site_fract_x
 _atom_site_fract_y
 _atom_site_fract_z
 _atom_site_occupancy
  Li  Li0  1  0.66133250  0.82751800  0.83200600  1
  Li  Li1  1  0.66133250  0.17248200  0.83200600  1
  Li  Li2  1  0.00000000  0.16506400  0.50000000  1
  Li  Li3  1  0.00000000  0.83493600  0.50000000  1
  Li  Li4  1  0.83866750  0.32751800  0.16799400  1
  Li  Li5  1  0.83866750  0.67248200  0.16799400  1
  Li  Li6  1  0.16133250  0.32751800  0.83200600  1
  Li  Li7  1  0.16133250  0.67248200  0.83200600  1
  Li  Li8  1  0.50000000  0.66506400  0.50000000  1
  Li  Li9  1  0.50000000  0.33493600  0.50000000  1
  Li  Li10  1  0.33866750  0.82751800  0.16799400  1
  Li  Li11  1  0.33866750  0.17248200  0.16799400  1
  Cr  Cr12  1  0.17143950  0.00000000  0.32384300  1
  Cr  Cr13  1  0.82856050  0.00000000  0.67615700  1
  Cr  Cr14  1  0.66606950  0.83163300  0.32602900  1
  Cr  Cr15  1  0.66606950  0.16836700  0.32602900  1
  Cr  Cr16  1  0.83393050  0.33163300  0.67397100  1
  Cr  Cr17  1  0.83393050  0.66836700  0.67397100  1
  Cr  Cr18  1  0.67143950  0.50000000  0.32384300  1
  Cr  Cr19  1  0.32856050  0.50000000  0.67615700  1
  Cr  Cr20  1  0.16606950  0.33163300  0.32602900  1
  Cr  Cr21  1  0.16606950  0.66836700  0.32602900  1
  Cr  Cr22  1  0.33393050  0.83163300  0.67397100  1
  Cr  Cr23  1  0.33393050  0.16836700  0.67397100  1
  Ni  Ni24  1  0.00000000  0.16168850  0.00000000  1
  Ni  Ni25  1  0.50000000  0.00000000  0.00000000  1
  Ni  Ni26  1  0.00000000  0.83831150  0.00000000  1
  Ni  Ni27  1  0.50000000  0.66168850  0.00000000  1
  Ni  Ni28  1  0.00000000  0.50000000  0.00000000  1
  Ni  Ni29  1  0.50000000  0.33831150  0.00000000  1
  O  O30  1  0.98653950  0.00000000  0.77488000  1
  O  O31  1  0.82530100  0.83028550  0.44091800  1
  O  O32  1  0.82530100  0.16971450  0.44091800  1
  O  O33  1  0.01346050  0.00000000  0.22512000  1
  O  O34  1  0.82890100  0.82553350  0.89063800  1
  O  O35  1  0.82890100  0.17446650  0.89063800  1
  O  O36  1  0.67469900  0.66971450  0.55908200  1
  O  O37  1  0.67122550  0.00000000  0.55046900  1
  O  O38  1  0.67469900  0.33028550  0.55908200  1
  O  O39  1  0.67109900  0.67446650  0.10936200  1
  O  O40  1  0.64891650  0.00000000  0.08587500  1
  O  O41  1  0.67109900  0.32553350  0.10936200  1
  O  O42  1  0.49073950  0.81876200  0.77467900  1
  O  O43  1  0.49073950  0.18123800  0.77467900  1
  O  O44  1  0.32877450  0.00000000  0.44953100  1
  O  O45  1  0.50926050  0.81876200  0.22532100  1
  O  O46  1  0.50926050  0.18123800  0.22532100  1
  O  O47  1  0.35108350  0.00000000  0.91412500  1
  O  O48  1  0.48653950  0.50000000  0.77488000  1
  O  O49  1  0.32530100  0.33028550  0.44091800  1
  O  O50  1  0.32530100  0.66971450  0.44091800  1
  O  O51  1  0.51346050  0.50000000  0.22512000  1
  O  O52  1  0.32890100  0.32553350  0.89063800  1
  O  O53  1  0.32890100  0.67446650  0.89063800  1
  O  O54  1  0.17469900  0.16971450  0.55908200  1
  O  O55  1  0.17122550  0.50000000  0.55046900  1
  O  O56  1  0.17469900  0.83028550  0.55908200  1
  O  O57  1  0.17109900  0.17446650  0.10936200  1
  O  O58  1  0.14891650  0.50000000  0.08587500  1
  O  O59  1  0.17109900  0.82553350  0.10936200  1
  O  O60  1  0.99073950  0.31876200  0.77467900  1
  O  O61  1  0.99073950  0.68123800  0.77467900  1
  O  O62  1  0.82877450  0.50000000  0.44953100  1
  O  O63  1  0.00926050  0.31876200  0.22532100  1
  O  O64  1  0.00926050  0.68123800  0.22532100  1
  O  O65  1  0.85108350  0.50000000  0.91412500  1
