# generated using pymatgen
data_Li2VO3
_symmetry_space_group_name_H-M   'P 1'
_cell_length_a   12.61529148
_cell_length_b   2.94872060
_cell_length_c   6.00027725
_cell_angle_alpha   90.00000000
_cell_angle_beta   104.41934049
_cell_angle_gamma   90.00000000
_symmetry_Int_Tables_number   1
_chemical_formula_structural   Li2VO3
_chemical_formula_sum   'Li8 V4 O12'
_cell_volume   216.17301480
_cell_formula_units_Z   4
loop_
 _symmetry_equiv_pos_site_id
 _symmetry_equiv_pos_as_xyz
  1  'x, y, z'
loop_
 _atom_site_type_symbol
 _atom_site_label
 _atom_site_symmetry_multiplicity
 _atom_site_fract_x
 _atom_site_fract_y
 _atom_site_fract_z
 _atom_site_occupancy
  Li  Li0  1  0.50000000  0.00000000  0.00000000  1
  Li  Li1  1  0.50000000  0.00000000  0.50000000  1
  Li  Li2  1  0.66341675  0.50000000  0.83851850  1
  Li  Li3  1  0.33658325  0.50000000  0.16148150  1
  Li  Li4  1  0.00000000  0.50000000  0.00000000  1
  Li  Li5  1  0.00000000  0.50000000  0.50000000  1
  Li  Li6  1  0.16341675  0.00000000  0.83851850  1
  Li  Li7  1  0.83658325  0.00000000  0.16148150  1
  V  V8  1  0.65670125  0.50000000  0.32125600  1
  V  V9  1  0.34329875  0.50000000  0.67874400  1
  V  V10  1  0.15670125  0.00000000  0.32125600  1
  V  V11  1  0.84329875  0.00000000  0.67874400  1
  O  O12  1  0.16820425  0.50000000  0.10668850  1
  O  O13  1  0.33179575  0.00000000  0.89331150  1
  O  O14  1  0.32549925  0.00000000  0.43462050  1
  O  O15  1  0.17450075  0.50000000  0.56537950  1
  O  O16  1  0.48755650  0.50000000  0.74002750  1
  O  O17  1  0.51244350  0.50000000  0.25997250  1
  O  O18  1  0.66820425  0.00000000  0.10668850  1
  O  O19  1  0.83179575  0.50000000  0.89331150  1
  O  O20  1  0.82549925  0.50000000  0.43462050  1
  O  O21  1  0.67450075  0.00000000  0.56537950  1
  O  O22  1  0.98755650  0.00000000  0.74002750  1
  O  O23  1  0.01244350  0.00000000  0.25997250  1
