# generated using pymatgen
data_Li2FeP2O7
_symmetry_space_group_name_H-M   'P 1'
_cell_length_a   6.93338901
_cell_length_b   7.00839906
_cell_length_c   13.10565708
_cell_angle_alpha   90.00000000
_cell_angle_beta   90.00000000
_cell_angle_gamma   90.00000000
_symmetry_Int_Tables_number   1
_chemical_formula_structural   Li2FeP2O7
_chemical_formula_sum   'Li8 Fe4 P8 O28'
_cell_volume   636.82952519
_cell_formula_units_Z   4
loop_
 _symmetry_equiv_pos_site_id
 _symmetry_equiv_pos_as_xyz
  1  'x, y, z'
loop_
 _atom_site_type_symbol
 _atom_site_label
 _atom_site_symmetry_multiplicity
 _atom_site_fract_x
 _atom_site_fract_y
 _atom_site_fract_z
 _atom_site_occupancy
  Li  Li0  1  0.25000000  0.75000000  0.48167325  1
  Li  Li1  1  0.25000000  0.25000000  0.51832675  1
  Li  Li2  1  0.75000000  0.25000000  0.51832675  1
  Li  Li3  1  0.75000000  0.75000000  0.48167325  1
  Li  Li4  1  0.75000000  0.25000000  0.98167325  1
  Li  Li5  1  0.75000000  0.75000000  0.01832675  1
  Li  Li6  1  0.25000000  0.75000000  0.01832675  1
  Li  Li7  1  0.25000000  0.25000000  0.98167325  1
  Fe  Fe8  1  0.75000000  0.25000000  0.75000000  1
  Fe  Fe9  1  0.75000000  0.75000000  0.25000000  1
  Fe  Fe10  1  0.25000000  0.75000000  0.25000000  1
  Fe  Fe11  1  0.25000000  0.25000000  0.75000000  1
  P  P12  1  0.50000000  0.56183400  0.63939175  1
  P  P13  1  0.00000000  0.93816600  0.63939175  1
  P  P14  1  0.00000000  0.06183400  0.36060825  1
  P  P15  1  0.50000000  0.43816600  0.36060825  1
  P  P16  1  0.00000000  0.06183400  0.13939175  1
  P  P17  1  0.50000000  0.43816600  0.13939175  1
  P  P18  1  0.50000000  0.56183400  0.86060825  1
  P  P19  1  0.00000000  0.93816600  0.86060825  1
  O  O20  1  0.50000000  0.66876300  0.75000000  1
  O  O21  1  0.50000000  0.33123700  0.25000000  1
  O  O22  1  0.00000000  0.78582550  0.55795575  1
  O  O23  1  0.50000000  0.71417450  0.55795575  1
  O  O24  1  0.50000000  0.28582550  0.44204425  1
  O  O25  1  0.00000000  0.21417450  0.44204425  1
  O  O26  1  0.18333950  0.93502850  0.36256075  1
  O  O27  1  0.31666050  0.56497150  0.36256075  1
  O  O28  1  0.31666050  0.43502850  0.63743925  1
  O  O29  1  0.18333950  0.06497150  0.63743925  1
  O  O30  1  0.68333950  0.56497150  0.36256075  1
  O  O31  1  0.81666050  0.93502850  0.36256075  1
  O  O32  1  0.68333950  0.43502850  0.63743925  1
  O  O33  1  0.81666050  0.06497150  0.63743925  1
  O  O34  1  0.00000000  0.16876300  0.25000000  1
  O  O35  1  0.00000000  0.83123700  0.75000000  1
  O  O36  1  0.50000000  0.28582550  0.05795575  1
  O  O37  1  0.00000000  0.21417450  0.05795575  1
  O  O38  1  0.00000000  0.78582550  0.94204425  1
  O  O39  1  0.50000000  0.71417450  0.94204425  1
  O  O40  1  0.68333950  0.43502850  0.86256075  1
  O  O41  1  0.81666050  0.06497150  0.86256075  1
  O  O42  1  0.81666050  0.93502850  0.13743925  1
  O  O43  1  0.68333950  0.56497150  0.13743925  1
  O  O44  1  0.18333950  0.06497150  0.86256075  1
  O  O45  1  0.31666050  0.43502850  0.86256075  1
  O  O46  1  0.18333950  0.93502850  0.13743925  1
  O  O47  1  0.31666050  0.56497150  0.13743925  1
