# generated using pymatgen
data_LiMnP2(HO4)2
_symmetry_space_group_name_H-M   'P 1'
_cell_length_a   10.27748400
_cell_length_b   15.92505600
_cell_length_c   8.84384402
_cell_angle_alpha   90.00000000
_cell_angle_beta   123.86586004
_cell_angle_gamma   90.00000000
_symmetry_Int_Tables_number   1
_chemical_formula_structural   LiMnP2(HO4)2
_chemical_formula_sum   'Li8 Mn8 P16 H16 O64'
_cell_volume   1201.89672257
_cell_formula_units_Z   8
loop_
 _symmetry_equiv_pos_site_id
 _symmetry_equiv_pos_as_xyz
  1  'x, y, z'
loop_
 _atom_site_type_symbol
 _atom_site_label
 _atom_site_symmetry_multiplicity
 _atom_site_fract_x
 _atom_site_fract_y
 _atom_site_fract_z
 _atom_site_occupancy
  Li  Li0  1  0.04569800  0.17084600  0.65214100  1
  Li  Li1  1  0.59649600  0.19346500  0.69064500  1
  Li  Li2  1  0.54569800  0.32915400  0.15214100  1
  Li  Li3  1  0.09649600  0.30653500  0.19064500  1
  Li  Li4  1  0.54569800  0.67084600  0.65214100  1
  Li  Li5  1  0.09649600  0.69346500  0.69064500  1
  Li  Li6  1  0.04569800  0.82915400  0.15214100  1
  Li  Li7  1  0.59649600  0.80653500  0.19064500  1
  Mn  Mn8  1  0.47433000  0.11092000  0.96315500  1
  Mn  Mn9  1  0.97433000  0.38908000  0.46315500  1
  Mn  Mn10  1  0.49666000  0.36067700  0.49101700  1
  Mn  Mn11  1  0.99666000  0.13932300  0.99101700  1
  Mn  Mn12  1  0.97433000  0.61092000  0.96315500  1
  Mn  Mn13  1  0.47433000  0.88908000  0.46315500  1
  Mn  Mn14  1  0.99666000  0.86067700  0.49101700  1
  Mn  Mn15  1  0.49666000  0.63932300  0.99101700  1
  P  P16  1  0.65571350  0.49380650  0.83949000  1
  P  P17  1  0.31198000  0.26941400  0.68740400  1
  P  P18  1  0.15571350  0.00619350  0.33949000  1
  P  P19  1  0.87563750  0.30891850  0.74660600  1
  P  P20  1  0.81198000  0.23058600  0.18740400  1
  P  P21  1  0.37563750  0.19108150  0.24660600  1
  P  P22  1  0.67025950  0.02303550  0.81351600  1
  P  P23  1  0.17025950  0.47696450  0.31351600  1
  P  P24  1  0.15571350  0.99380650  0.83949000  1
  P  P25  1  0.81198000  0.76941400  0.68740400  1
  P  P26  1  0.65571350  0.50619350  0.33949000  1
  P  P27  1  0.37563750  0.80891850  0.74660600  1
  P  P28  1  0.31198000  0.73058600  0.18740400  1
  P  P29  1  0.87563750  0.69108150  0.24660600  1
  P  P30  1  0.17025950  0.52303550  0.81351600  1
  P  P31  1  0.67025950  0.97696450  0.31351600  1
  H  H32  1  0.90993500  0.42143500  0.90790400  1
  H  H33  1  0.28376100  0.06743700  0.60113400  1
  H  H34  1  0.40993500  0.07856500  0.40790400  1
  H  H35  1  0.78376100  0.43256300  0.10113400  1
  H  H36  1  0.29690750  0.38320850  0.81075500  1
  H  H37  1  0.86868200  0.00679500  0.58225700  1
  H  H38  1  0.79690750  0.11679150  0.31075500  1
  H  H39  1  0.36868200  0.49320500  0.08225700  1
  H  H40  1  0.40993500  0.92143500  0.90790400  1
  H  H41  1  0.78376100  0.56743700  0.60113400  1
  H  H42  1  0.90993500  0.57856500  0.40790400  1
  H  H43  1  0.28376100  0.93256300  0.10113400  1
  H  H44  1  0.79690750  0.88320850  0.81075500  1
  H  H45  1  0.36868200  0.50679500  0.58225700  1
  H  H46  1  0.29690750  0.61679150  0.31075500  1
  H  H47  1  0.86868200  0.99320500  0.08225700  1
  O  O48  1  0.08142750  0.07674150  0.83924400  1
  O  O49  1  0.67605700  0.43178000  0.99132500  1
  O  O50  1  0.53153400  0.45142100  0.65360800  1
  O  O51  1  0.69934300  0.30056700  0.67104900  1
  O  O52  1  0.31573050  0.00356450  0.86622500  1
  O  O53  1  0.58142750  0.42325850  0.33924400  1
  O  O54  1  0.17605700  0.06822000  0.49132500  1
  O  O55  1  0.37063550  0.33498150  0.85393200  1
  O  O56  1  0.03153400  0.04857900  0.15360800  1
  O  O57  1  0.31268850  0.18145550  0.76619500  1
  O  O58  1  0.96122050  0.36322150  0.92784600  1
  O  O59  1  0.95544700  0.22158800  0.80246900  1
  O  O60  1  0.90039150  0.34800150  0.60869000  1
  O  O61  1  0.19934300  0.19943300  0.17104900  1
  O  O62  1  0.42201950  0.27227150  0.62327000  1
  O  O63  1  0.81573050  0.49643550  0.36622500  1
  O  O64  1  0.51965050  0.06093050  0.78528200  1
  O  O65  1  0.87063550  0.16501850  0.35393200  1
  O  O66  1  0.81268850  0.31854450  0.26619500  1
  O  O67  1  0.46122050  0.13677850  0.42784600  1
  O  O68  1  0.26488750  0.46734450  0.99095400  1
  O  O69  1  0.45544700  0.27841200  0.30246900  1
  O  O70  1  0.13297600  0.45999800  0.66143400  1
  O  O71  1  0.40039150  0.15199850  0.10869000  1
  O  O72  1  0.92201950  0.22772850  0.12327000  1
  O  O73  1  0.14086700  0.29007900  0.54031800  1
  O  O74  1  0.01965050  0.43906950  0.28528200  1
  O  O75  1  0.77216000  0.09780600  0.82502800  1
  O  O76  1  0.76488750  0.03265550  0.49095400  1
  O  O77  1  0.63297600  0.04000200  0.16143400  1
  O  O78  1  0.64086700  0.20992100  0.04031800  1
  O  O79  1  0.27216000  0.40219400  0.32502800  1
  O  O80  1  0.58142750  0.57674150  0.83924400  1
  O  O81  1  0.17605700  0.93178000  0.99132500  1
  O  O82  1  0.03153400  0.95142100  0.65360800  1
  O  O83  1  0.19934300  0.80056700  0.67104900  1
  O  O84  1  0.81573050  0.50356450  0.86622500  1
  O  O85  1  0.08142750  0.92325850  0.33924400  1
  O  O86  1  0.67605700  0.56822000  0.49132500  1
  O  O87  1  0.87063550  0.83498150  0.85393200  1
  O  O88  1  0.53153400  0.54857900  0.15360800  1
  O  O89  1  0.81268850  0.68145550  0.76619500  1
  O  O90  1  0.46122050  0.86322150  0.92784600  1
  O  O91  1  0.45544700  0.72158800  0.80246900  1
  O  O92  1  0.40039150  0.84800150  0.60869000  1
  O  O93  1  0.69934300  0.69943300  0.17104900  1
  O  O94  1  0.92201950  0.77227150  0.62327000  1
  O  O95  1  0.31573050  0.99643550  0.36622500  1
  O  O96  1  0.01965050  0.56093050  0.78528200  1
  O  O97  1  0.37063550  0.66501850  0.35393200  1
  O  O98  1  0.31268850  0.81854450  0.26619500  1
  O  O99  1  0.96122050  0.63677850  0.42784600  1
  O  O100  1  0.76488750  0.96734450  0.99095400  1
  O  O101  1  0.95544700  0.77841200  0.30246900  1
  O  O102  1  0.63297600  0.95999800  0.66143400  1
  O  O103  1  0.90039150  0.65199850  0.10869000  1
  O  O104  1  0.42201950  0.72772850  0.12327000  1
  O  O105  1  0.64086700  0.79007900  0.54031800  1
  O  O106  1  0.51965050  0.93906950  0.28528200  1
  O  O107  1  0.27216000  0.59780600  0.82502800  1
  O  O108  1  0.26488750  0.53265550  0.49095400  1
  O  O109  1  0.13297600  0.54000200  0.16143400  1
  O  O110  1  0.14086700  0.70992100  0.04031800  1
  O  O111  1  0.77216000  0.90219400  0.32502800  1
