# generated using pymatgen
data_Na3FeO4
_symmetry_space_group_name_H-M   'P 1'
_cell_length_a   5.45589300
_cell_length_b   5.98631100
_cell_length_c   7.48552900
_cell_angle_alpha   90.00000000
_cell_angle_beta   90.00000000
_cell_angle_gamma   90.00000000
_symmetry_Int_Tables_number   1
_chemical_formula_structural   Na3FeO4
_chemical_formula_sum   'Na6 Fe2 O8'
_cell_volume   244.48240959
_cell_formula_units_Z   2
loop_
 _symmetry_equiv_pos_site_id
 _symmetry_equiv_pos_as_xyz
  1  'x, y, z'
loop_
 _atom_site_type_symbol
 _atom_site_label
 _atom_site_symmetry_multiplicity
 _atom_site_fract_x
 _atom_site_fract_y
 _atom_site_fract_z
 _atom_site_occupancy
  Na  Na0  1  0.47852400  0.15555800  0.00000000  1
  Na  Na1  1  0.98515800  0.31752600  0.24373300  1
  Na  Na2  1  0.48515800  0.68247400  0.25626700  1
  Na  Na3  1  0.97852400  0.84444200  0.50000000  1
  Na  Na4  1  0.48515800  0.68247400  0.74373300  1
  Na  Na5  1  0.98515800  0.31752600  0.75626700  1
  Fe  Fe6  1  0.99660800  0.81316100  0.00000000  1
  Fe  Fe7  1  0.49660800  0.18683900  0.50000000  1
  O  O8  1  0.90751600  0.09120400  0.00000000  1
  O  O9  1  0.31197800  0.80327400  0.00000000  1
  O  O10  1  0.90988700  0.69845800  0.20828400  1
  O  O11  1  0.40988700  0.30154200  0.29171600  1
  O  O12  1  0.81197800  0.19672600  0.50000000  1
  O  O13  1  0.40751600  0.90879600  0.50000000  1
  O  O14  1  0.40988700  0.30154200  0.70828400  1
  O  O15  1  0.90988700  0.69845800  0.79171600  1
