# generated using pymatgen
data_V3CrO8
_symmetry_space_group_name_H-M   'P 1'
_cell_length_a   12.18686000
_cell_length_b   3.83102000
_cell_length_c   6.47207457
_cell_angle_alpha   90.00000000
_cell_angle_beta   107.21070812
_cell_angle_gamma   90.00000000
_symmetry_Int_Tables_number   1
_chemical_formula_structural   V3CrO8
_chemical_formula_sum   'V6 Cr2 O16'
_cell_volume   288.63870061
_cell_formula_units_Z   2
loop_
 _symmetry_equiv_pos_site_id
 _symmetry_equiv_pos_as_xyz
  1  'x, y, z'
loop_
 _atom_site_type_symbol
 _atom_site_label
 _atom_site_symmetry_multiplicity
 _atom_site_fract_x
 _atom_site_fract_y
 _atom_site_fract_z
 _atom_site_occupancy
  V  V0  1  0.40132600  0.00000000  0.29782900  1
  V  V1  1  0.10087100  0.50000000  0.72185400  1
  V  V2  1  0.29711300  0.00000000  0.71071900  1
  V  V3  1  0.90132600  0.50000000  0.29782900  1
  V  V4  1  0.60087100  0.00000000  0.72185400  1
  V  V5  1  0.79711300  0.50000000  0.71071900  1
  Cr  Cr6  1  0.20674500  0.50000000  0.31185600  1
  Cr  Cr7  1  0.70674500  0.00000000  0.31185600  1
  O  O8  1  0.13412900  0.00000000  0.69237500  1
  O  O9  1  0.24348200  0.00000000  0.35748100  1
  O  O10  1  0.35806100  0.00000000  0.98570600  1
  O  O11  1  0.44622300  0.00000000  0.63628800  1
  O  O12  1  0.05088200  0.50000000  0.35545600  1
  O  O13  1  0.13891900  0.50000000  0.99296800  1
  O  O14  1  0.25677800  0.50000000  0.64557500  1
  O  O15  1  0.36547100  0.50000000  0.29189400  1
  O  O16  1  0.63412900  0.50000000  0.69237500  1
  O  O17  1  0.74348200  0.50000000  0.35748100  1
  O  O18  1  0.85806100  0.50000000  0.98570600  1
  O  O19  1  0.94622300  0.50000000  0.63628800  1
  O  O20  1  0.55088200  0.00000000  0.35545600  1
  O  O21  1  0.63891900  0.00000000  0.99296800  1
  O  O22  1  0.75677800  0.00000000  0.64557500  1
  O  O23  1  0.86547100  0.00000000  0.29189400  1
