# generated using pymatgen
data_Li3V3P8O29
_symmetry_space_group_name_H-M   'P 1'
_cell_length_a   16.95334200
_cell_length_b   9.76585000
_cell_length_c   13.97302043
_cell_angle_alpha   90.00000000
_cell_angle_beta   90.01428189
_cell_angle_gamma   90.00000000
_symmetry_Int_Tables_number   1
_chemical_formula_structural   Li3V3P8O29
_chemical_formula_sum   'Li12 V12 P32 O116'
_cell_volume   2313.42621840
_cell_formula_units_Z   4
loop_
 _symmetry_equiv_pos_site_id
 _symmetry_equiv_pos_as_xyz
  1  'x, y, z'
loop_
 _atom_site_type_symbol
 _atom_site_label
 _atom_site_symmetry_multiplicity
 _atom_site_fract_x
 _atom_site_fract_y
 _atom_site_fract_z
 _atom_site_occupancy
  Li  Li0  1  0.83934350  0.06650150  0.80496900  1
  Li  Li1  1  0.54501550  0.77224950  0.31157900  1
  Li  Li2  1  0.95498450  0.27224950  0.68842100  1
  Li  Li3  1  0.54542400  0.23245000  0.80363800  1
  Li  Li4  1  0.95457600  0.73245000  0.19636200  1
  Li  Li5  1  0.66065650  0.56650150  0.19503100  1
  Li  Li6  1  0.33934350  0.56650150  0.80496900  1
  Li  Li7  1  0.04501550  0.27224950  0.31157900  1
  Li  Li8  1  0.45498450  0.77224950  0.68842100  1
  Li  Li9  1  0.04542400  0.73245000  0.80363800  1
  Li  Li10  1  0.45457600  0.23245000  0.19636200  1
  Li  Li11  1  0.16065650  0.06650150  0.19503100  1
  V  V12  1  0.00000000  0.43513800  0.50000000  1
  V  V13  1  0.00000000  0.56407000  0.00000000  1
  V  V14  1  0.78347000  0.21958200  0.00764900  1
  V  V15  1  0.71706800  0.28525400  0.49735700  1
  V  V16  1  0.78293200  0.78525400  0.50264300  1
  V  V17  1  0.71653000  0.71958200  0.99235100  1
  V  V18  1  0.50000000  0.93513800  0.50000000  1
  V  V19  1  0.50000000  0.06407000  0.00000000  1
  V  V20  1  0.28347000  0.71958200  0.00764900  1
  V  V21  1  0.21706800  0.78525400  0.49735700  1
  V  V22  1  0.28293200  0.28525400  0.50264300  1
  V  V23  1  0.21653000  0.21958200  0.99235100  1
  P  P24  1  0.84180750  0.92589150  0.09330900  1
  P  P25  1  0.84115900  0.07254100  0.59026400  1
  P  P26  1  0.61414700  0.69867500  0.59524700  1
  P  P27  1  0.66677850  0.99928150  0.37891500  1
  P  P28  1  0.66752750  0.00414450  0.87826300  1
  P  P29  1  0.54477300  0.77154100  0.09205500  1
  P  P30  1  0.95522700  0.27154100  0.90794500  1
  P  P31  1  0.61382800  0.30109300  0.09342500  1
  P  P32  1  0.88585300  0.19867500  0.40475300  1
  P  P33  1  0.54531550  0.22870650  0.59057900  1
  P  P34  1  0.95468450  0.72870650  0.40942100  1
  P  P35  1  0.83322150  0.49928150  0.62108500  1
  P  P36  1  0.83247250  0.50414450  0.12173700  1
  P  P37  1  0.88617200  0.80109300  0.90657500  1
  P  P38  1  0.65819250  0.42589150  0.90669100  1
  P  P39  1  0.65884100  0.57254100  0.40973600  1
  P  P40  1  0.34180750  0.42589150  0.09330900  1
  P  P41  1  0.34115900  0.57254100  0.59026400  1
  P  P42  1  0.11414700  0.19867500  0.59524700  1
  P  P43  1  0.16677850  0.49928150  0.37891500  1
  P  P44  1  0.16752750  0.50414450  0.87826300  1
  P  P45  1  0.04477300  0.27154100  0.09205500  1
  P  P46  1  0.45522700  0.77154100  0.90794500  1
  P  P47  1  0.11382800  0.80109300  0.09342500  1
  P  P48  1  0.38585300  0.69867500  0.40475300  1
  P  P49  1  0.04531550  0.72870650  0.59057900  1
  P  P50  1  0.45468450  0.22870650  0.40942100  1
  P  P51  1  0.33322150  0.99928150  0.62108500  1
  P  P52  1  0.33247250  0.00414450  0.12173700  1
  P  P53  1  0.38617200  0.30109300  0.90657500  1
  P  P54  1  0.15819250  0.92589150  0.90669100  1
  P  P55  1  0.15884100  0.07254100  0.40973600  1
  O  O56  1  0.88035150  0.88609850  0.81991100  1
  O  O57  1  0.82907050  0.91593750  0.58665300  1
  O  O58  1  0.88420350  0.11626550  0.31660500  1
  O  O59  1  0.82739800  0.08304500  0.08481600  1
  O  O60  1  0.76179150  0.85322350  0.07134200  1
  O  O61  1  0.73956800  0.92369500  0.42524800  1
  O  O62  1  0.69090550  0.78285350  0.57450000  1
  O  O63  1  0.62182850  0.62181750  0.31813600  1
  O  O64  1  0.62894150  0.71003950  0.08655300  1
  O  O65  1  0.74280300  0.07465200  0.92029100  1
  O  O66  1  0.76120050  0.14437750  0.57289400  1
  O  O67  1  0.66611600  0.85350200  0.92347500  1
  O  O68  1  0.66390750  0.99300250  0.27261000  1
  O  O69  1  0.66599700  0.00278500  0.77230800  1
  O  O70  1  0.59064200  0.92077200  0.42025400  1
  O  O71  1  0.69037500  0.21402300  0.07493600  1
  O  O72  1  0.66709200  0.14692800  0.42276300  1
  O  O73  1  0.54162750  0.79856450  0.58877400  1
  O  O74  1  0.00000000  0.20753900  0.00000000  1
  O  O75  1  0.99572150  0.24510650  0.81678400  1
  O  O76  1  0.50427850  0.74510650  0.18321600  1
  O  O77  1  0.54885700  0.92977700  0.06970300  1
  O  O78  1  0.59136250  0.07903950  0.92069600  1
  O  O79  1  0.95837250  0.29856450  0.41122600  1
  O  O80  1  0.54826750  0.07046050  0.57028600  1
  O  O81  1  0.62962000  0.28623700  0.58264000  1
  O  O82  1  0.89799400  0.10797600  0.50224600  1
  O  O83  1  0.87817150  0.12181750  0.68186400  1
  O  O84  1  0.61802000  0.37754700  0.82000700  1
  O  O85  1  0.87105850  0.21003950  0.91344700  1
  O  O86  1  0.95114300  0.42977700  0.93029700  1
  O  O87  1  0.54140250  0.20274250  0.08974400  1
  O  O88  1  0.90935800  0.42077200  0.57974600  1
  O  O89  1  0.95173250  0.57046050  0.42971400  1
  O  O90  1  0.99607150  0.75570850  0.31833300  1
  O  O91  1  0.50392850  0.25570850  0.68166700  1
  O  O92  1  0.00000000  0.79421800  0.50000000  1
  O  O93  1  0.95859750  0.70274250  0.91025600  1
  O  O94  1  0.83388400  0.35350200  0.07652500  1
  O  O95  1  0.80909450  0.28285350  0.42550000  1
  O  O96  1  0.90863750  0.57903950  0.07930400  1
  O  O97  1  0.83400300  0.50278500  0.22769200  1
  O  O98  1  0.83609250  0.49300250  0.72739000  1
  O  O99  1  0.83290800  0.64692800  0.57723700  1
  O  O100  1  0.73820850  0.35322350  0.92865800  1
  O  O101  1  0.76043200  0.42369500  0.57475200  1
  O  O102  1  0.87038000  0.78623700  0.41736000  1
  O  O103  1  0.89685550  0.89485550  0.00055900  1
  O  O104  1  0.88198000  0.87754700  0.17999300  1
  O  O105  1  0.80962500  0.71402300  0.92506400  1
  O  O106  1  0.75719700  0.57465200  0.07970900  1
  O  O107  1  0.73879950  0.64437750  0.42710600  1
  O  O108  1  0.67092950  0.41593750  0.41334700  1
  O  O109  1  0.61964850  0.38609850  0.18008900  1
  O  O110  1  0.60314450  0.39485550  0.99944100  1
  O  O111  1  0.67260200  0.58304500  0.91518400  1
  O  O112  1  0.61579650  0.61626550  0.68339500  1
  O  O113  1  0.60200600  0.60797600  0.49775400  1
  O  O114  1  0.38035150  0.38609850  0.81991100  1
  O  O115  1  0.32907050  0.41593750  0.58665300  1
  O  O116  1  0.38420350  0.61626550  0.31660500  1
  O  O117  1  0.32739800  0.58304500  0.08481600  1
  O  O118  1  0.26179150  0.35322350  0.07134200  1
  O  O119  1  0.23956800  0.42369500  0.42524800  1
  O  O120  1  0.19090550  0.28285350  0.57450000  1
  O  O121  1  0.12182850  0.12181750  0.31813600  1
  O  O122  1  0.12894150  0.21003950  0.08655300  1
  O  O123  1  0.24280300  0.57465200  0.92029100  1
  O  O124  1  0.26120050  0.64437750  0.57289400  1
  O  O125  1  0.16611600  0.35350200  0.92347500  1
  O  O126  1  0.16390750  0.49300250  0.27261000  1
  O  O127  1  0.16599700  0.50278500  0.77230800  1
  O  O128  1  0.09064200  0.42077200  0.42025400  1
  O  O129  1  0.19037500  0.71402300  0.07493600  1
  O  O130  1  0.16709200  0.64692800  0.42276300  1
  O  O131  1  0.04162750  0.29856450  0.58877400  1
  O  O132  1  0.50000000  0.70753900  0.00000000  1
  O  O133  1  0.49572150  0.74510650  0.81678400  1
  O  O134  1  0.00427850  0.24510650  0.18321600  1
  O  O135  1  0.04885700  0.42977700  0.06970300  1
  O  O136  1  0.09136250  0.57903950  0.92069600  1
  O  O137  1  0.45837250  0.79856450  0.41122600  1
  O  O138  1  0.04826750  0.57046050  0.57028600  1
  O  O139  1  0.12962000  0.78623700  0.58264000  1
  O  O140  1  0.39799400  0.60797600  0.50224600  1
  O  O141  1  0.37817150  0.62181750  0.68186400  1
  O  O142  1  0.11802000  0.87754700  0.82000700  1
  O  O143  1  0.37105850  0.71003950  0.91344700  1
  O  O144  1  0.45114300  0.92977700  0.93029700  1
  O  O145  1  0.04140250  0.70274250  0.08974400  1
  O  O146  1  0.40935800  0.92077200  0.57974600  1
  O  O147  1  0.45173250  0.07046050  0.42971400  1
  O  O148  1  0.49607150  0.25570850  0.31833300  1
  O  O149  1  0.00392850  0.75570850  0.68166700  1
  O  O150  1  0.50000000  0.29421800  0.50000000  1
  O  O151  1  0.45859750  0.20274250  0.91025600  1
  O  O152  1  0.33388400  0.85350200  0.07652500  1
  O  O153  1  0.30909450  0.78285350  0.42550000  1
  O  O154  1  0.40863750  0.07903950  0.07930400  1
  O  O155  1  0.33400300  0.00278500  0.22769200  1
  O  O156  1  0.33609250  0.99300250  0.72739000  1
  O  O157  1  0.33290800  0.14692800  0.57723700  1
  O  O158  1  0.23820850  0.85322350  0.92865800  1
  O  O159  1  0.26043200  0.92369500  0.57475200  1
  O  O160  1  0.37038000  0.28623700  0.41736000  1
  O  O161  1  0.39685550  0.39485550  0.00055900  1
  O  O162  1  0.38198000  0.37754700  0.17999300  1
  O  O163  1  0.30962500  0.21402300  0.92506400  1
  O  O164  1  0.25719700  0.07465200  0.07970900  1
  O  O165  1  0.23879950  0.14437750  0.42710600  1
  O  O166  1  0.17092950  0.91593750  0.41334700  1
  O  O167  1  0.11964850  0.88609850  0.18008900  1
  O  O168  1  0.10314450  0.89485550  0.99944100  1
  O  O169  1  0.17260200  0.08304500  0.91518400  1
  O  O170  1  0.11579650  0.11626550  0.68339500  1
  O  O171  1  0.10200600  0.10797600  0.49775400  1
