# generated using pymatgen
data_LiMn2(BO3)2
_symmetry_space_group_name_H-M   'P 1'
_cell_length_a   5.36353930
_cell_length_b   8.99466971
_cell_length_c   10.59154251
_cell_angle_alpha   90.00000000
_cell_angle_beta   91.04242164
_cell_angle_gamma   90.00000000
_symmetry_Int_Tables_number   1
_chemical_formula_structural   LiMn2(BO3)2
_chemical_formula_sum   'Li4 Mn8 B8 O24'
_cell_volume   510.88602112
_cell_formula_units_Z   4
loop_
 _symmetry_equiv_pos_site_id
 _symmetry_equiv_pos_as_xyz
  1  'x, y, z'
loop_
 _atom_site_type_symbol
 _atom_site_label
 _atom_site_symmetry_multiplicity
 _atom_site_fract_x
 _atom_site_fract_y
 _atom_site_fract_z
 _atom_site_occupancy
  Li  Li0  1  0.50676800  0.03147100  0.24586400  1
  Li  Li1  1  0.50676800  0.96852900  0.74586400  1
  Li  Li2  1  0.00676800  0.53147100  0.24586400  1
  Li  Li3  1  0.00676800  0.46852900  0.74586400  1
  Mn  Mn4  1  0.38549450  0.31837850  0.63046900  1
  Mn  Mn5  1  0.64846750  0.65462550  0.39192700  1
  Mn  Mn6  1  0.38549450  0.68162150  0.13046900  1
  Mn  Mn7  1  0.64846750  0.34537450  0.89192700  1
  Mn  Mn8  1  0.88549450  0.81837850  0.63046900  1
  Mn  Mn9  1  0.14846750  0.15462550  0.39192700  1
  Mn  Mn10  1  0.88549450  0.18162150  0.13046900  1
  Mn  Mn11  1  0.14846750  0.84537450  0.89192700  1
  B  B12  1  0.67740950  0.68810050  0.87618800  1
  B  B13  1  0.67740950  0.31189950  0.37618800  1
  B  B14  1  0.35597850  0.67685850  0.63706300  1
  B  B15  1  0.35597850  0.32314150  0.13706300  1
  B  B16  1  0.17740950  0.18810050  0.87618800  1
  B  B17  1  0.17740950  0.81189950  0.37618800  1
  B  B18  1  0.85597850  0.17685850  0.63706300  1
  B  B19  1  0.85597850  0.82314150  0.13706300  1
  O  O20  1  0.58262950  0.70657550  0.57941000  1
  O  O21  1  0.58262950  0.29342450  0.07941000  1
  O  O22  1  0.47332600  0.71625600  0.95314100  1
  O  O23  1  0.47332600  0.28374400  0.45314100  1
  O  O24  1  0.77040550  0.81437250  0.81014400  1
  O  O25  1  0.77040550  0.18562750  0.31014400  1
  O  O26  1  0.23575550  0.80098650  0.69270300  1
  O  O27  1  0.23575550  0.19901350  0.19270300  1
  O  O28  1  0.75561700  0.96040100  0.13676500  1
  O  O29  1  0.75561700  0.03959900  0.63676500  1
  O  O30  1  0.28476300  0.94549600  0.36158600  1
  O  O31  1  0.28476300  0.05450400  0.86158600  1
  O  O32  1  0.08262950  0.20657550  0.57941000  1
  O  O33  1  0.08262950  0.79342450  0.07941000  1
  O  O34  1  0.97332600  0.21625600  0.95314100  1
  O  O35  1  0.97332600  0.78374400  0.45314100  1
  O  O36  1  0.27040550  0.31437250  0.81014400  1
  O  O37  1  0.27040550  0.68562750  0.31014400  1
  O  O38  1  0.73575550  0.30098650  0.69270300  1
  O  O39  1  0.73575550  0.69901350  0.19270300  1
  O  O40  1  0.25561700  0.46040100  0.13676500  1
  O  O41  1  0.25561700  0.53959900  0.63676500  1
  O  O42  1  0.78476300  0.44549600  0.36158600  1
  O  O43  1  0.78476300  0.55450400  0.86158600  1
