# generated using pymatgen
data_Li5Mn6(BO3)6
_symmetry_space_group_name_H-M   'P 1'
_cell_length_a   16.50854800
_cell_length_b   6.37070800
_cell_length_c   8.23058553
_cell_angle_alpha   90.00000000
_cell_angle_beta   119.30688019
_cell_angle_gamma   90.00000000
_symmetry_Int_Tables_number   1
_chemical_formula_structural   Li5Mn6(BO3)6
_chemical_formula_sum   'Li10 Mn12 B12 O36'
_cell_volume   754.82977512
_cell_formula_units_Z   2
loop_
 _symmetry_equiv_pos_site_id
 _symmetry_equiv_pos_as_xyz
  1  'x, y, z'
loop_
 _atom_site_type_symbol
 _atom_site_label
 _atom_site_symmetry_multiplicity
 _atom_site_fract_x
 _atom_site_fract_y
 _atom_site_fract_z
 _atom_site_occupancy
  Li  Li0  1  0.39082200  0.00000000  0.98472100  1
  Li  Li1  1  0.39120200  0.50000000  0.98042100  1
  Li  Li2  1  0.10209500  0.50000000  0.72268200  1
  Li  Li3  1  0.25926600  0.50000000  0.30077400  1
  Li  Li4  1  0.25947300  0.00000000  0.29948600  1
  Li  Li5  1  0.89082200  0.50000000  0.98472100  1
  Li  Li6  1  0.89120200  0.00000000  0.98042100  1
  Li  Li7  1  0.60209500  0.00000000  0.72268200  1
  Li  Li8  1  0.75926600  0.00000000  0.30077400  1
  Li  Li9  1  0.75947300  0.50000000  0.29948600  1
  Mn  Mn10  1  0.44058500  0.74806200  0.36845600  1
  Mn  Mn11  1  0.44058500  0.25193800  0.36845600  1
  Mn  Mn12  1  0.23947850  0.24683550  0.63116300  1
  Mn  Mn13  1  0.23947850  0.75316450  0.63116300  1
  Mn  Mn14  1  0.06875800  0.75216700  0.00003400  1
  Mn  Mn15  1  0.06875800  0.24783300  0.00003400  1
  Mn  Mn16  1  0.94058500  0.24806200  0.36845600  1
  Mn  Mn17  1  0.94058500  0.75193800  0.36845600  1
  Mn  Mn18  1  0.73947850  0.74683550  0.63116300  1
  Mn  Mn19  1  0.73947850  0.25316450  0.63116300  1
  Mn  Mn20  1  0.56875800  0.25216700  0.00003400  1
  Mn  Mn21  1  0.56875800  0.74783300  0.00003400  1
  B  B22  1  0.41580100  0.00000000  0.66745700  1
  B  B23  1  0.40949400  0.50000000  0.65978200  1
  B  B24  1  0.25380550  0.74539050  0.00779900  1
  B  B25  1  0.08216800  0.50000000  0.33162200  1
  B  B26  1  0.25380550  0.25460950  0.00779900  1
  B  B27  1  0.08430800  0.00000000  0.32496300  1
  B  B28  1  0.91580100  0.50000000  0.66745700  1
  B  B29  1  0.90949400  0.00000000  0.65978200  1
  B  B30  1  0.75380550  0.24539050  0.00779900  1
  B  B31  1  0.58216800  0.00000000  0.33162200  1
  B  B32  1  0.75380550  0.75460950  0.00779900  1
  B  B33  1  0.58430800  0.50000000  0.32496300  1
  O  O34  1  0.31011400  0.75009000  0.92427800  1
  O  O35  1  0.31011400  0.24991000  0.92427800  1
  O  O36  1  0.47004600  0.00000000  0.86042200  1
  O  O37  1  0.46815300  0.50000000  0.85081900  1
  O  O38  1  0.31369100  0.50000000  0.58714700  1
  O  O39  1  0.31999100  0.00000000  0.58305700  1
  O  O40  1  0.15912150  0.73050350  0.89923700  1
  O  O41  1  0.15912150  0.26949650  0.89923700  1
  O  O42  1  0.46018600  0.00000000  0.56021700  1
  O  O43  1  0.44367900  0.50000000  0.53589100  1
  O  O44  1  0.29548700  0.75185600  0.20232400  1
  O  O45  1  0.29548700  0.24814400  0.20232400  1
  O  O46  1  0.13636600  0.50000000  0.52495100  1
  O  O47  1  0.14088900  0.00000000  0.51515600  1
  O  O48  1  0.48492400  0.00000000  0.25404100  1
  O  O49  1  0.48750600  0.50000000  0.25025500  1
  O  O50  1  0.12173600  0.50000000  0.21752400  1
  O  O51  1  0.12220200  0.00000000  0.20597800  1
  O  O52  1  0.81011400  0.25009000  0.92427800  1
  O  O53  1  0.81011400  0.74991000  0.92427800  1
  O  O54  1  0.97004600  0.50000000  0.86042200  1
  O  O55  1  0.96815300  0.00000000  0.85081900  1
  O  O56  1  0.81369100  0.00000000  0.58714700  1
  O  O57  1  0.81999100  0.50000000  0.58305700  1
  O  O58  1  0.65912150  0.23050350  0.89923700  1
  O  O59  1  0.65912150  0.76949650  0.89923700  1
  O  O60  1  0.96018600  0.50000000  0.56021700  1
  O  O61  1  0.94367900  0.00000000  0.53589100  1
  O  O62  1  0.79548700  0.25185600  0.20232400  1
  O  O63  1  0.79548700  0.74814400  0.20232400  1
  O  O64  1  0.63636600  0.00000000  0.52495100  1
  O  O65  1  0.64088900  0.50000000  0.51515600  1
  O  O66  1  0.98492400  0.50000000  0.25404100  1
  O  O67  1  0.98750600  0.00000000  0.25025500  1
  O  O68  1  0.62173600  0.00000000  0.21752400  1
  O  O69  1  0.62220200  0.50000000  0.20597800  1
