# generated using pymatgen
data_LiNi4(PO4)3
_symmetry_space_group_name_H-M   'P 1'
_cell_length_a   11.55449200
_cell_length_b   12.57194200
_cell_length_c   6.51220682
_cell_angle_alpha   90.00000000
_cell_angle_beta   114.29682777
_cell_angle_gamma   90.00000000
_symmetry_Int_Tables_number   1
_chemical_formula_structural   LiNi4(PO4)3
_chemical_formula_sum   'Li4 Ni16 P12 O48'
_cell_volume   862.18974202
_cell_formula_units_Z   4
loop_
 _symmetry_equiv_pos_site_id
 _symmetry_equiv_pos_as_xyz
  1  'x, y, z'
loop_
 _atom_site_type_symbol
 _atom_site_label
 _atom_site_symmetry_multiplicity
 _atom_site_fract_x
 _atom_site_fract_y
 _atom_site_fract_z
 _atom_site_occupancy
  Li  Li0  1  0.50000000  0.49942700  0.75000000  1
  Li  Li1  1  0.50000000  0.50057300  0.25000000  1
  Li  Li2  1  0.00000000  0.99942700  0.75000000  1
  Li  Li3  1  0.00000000  0.00057300  0.25000000  1
  Ni  Ni4  1  0.21224950  0.84117750  0.62296400  1
  Ni  Ni5  1  0.21224950  0.15882250  0.12296400  1
  Ni  Ni6  1  0.50000000  0.99502500  0.75000000  1
  Ni  Ni7  1  0.50000000  0.23746400  0.75000000  1
  Ni  Ni8  1  0.50000000  0.76253600  0.25000000  1
  Ni  Ni9  1  0.50000000  0.00497500  0.25000000  1
  Ni  Ni10  1  0.78775050  0.84117750  0.87703600  1
  Ni  Ni11  1  0.78775050  0.15882250  0.37703600  1
  Ni  Ni12  1  0.71224950  0.34117750  0.62296400  1
  Ni  Ni13  1  0.71224950  0.65882250  0.12296400  1
  Ni  Ni14  1  0.00000000  0.49502500  0.75000000  1
  Ni  Ni15  1  0.00000000  0.73746400  0.75000000  1
  Ni  Ni16  1  0.00000000  0.26253600  0.25000000  1
  Ni  Ni17  1  0.00000000  0.50497500  0.25000000  1
  Ni  Ni18  1  0.28775050  0.34117750  0.87703600  1
  Ni  Ni19  1  0.28775050  0.65882250  0.37703600  1
  P  P20  1  0.22732350  0.11046350  0.62074700  1
  P  P21  1  0.22732350  0.88953650  0.12074700  1
  P  P22  1  0.50000000  0.79057300  0.75000000  1
  P  P23  1  0.50000000  0.20942700  0.25000000  1
  P  P24  1  0.77267650  0.11046350  0.87925300  1
  P  P25  1  0.77267650  0.88953650  0.37925300  1
  P  P26  1  0.72732350  0.61046350  0.62074700  1
  P  P27  1  0.72732350  0.38953650  0.12074700  1
  P  P28  1  0.00000000  0.29057300  0.75000000  1
  P  P29  1  0.00000000  0.70942700  0.25000000  1
  P  P30  1  0.27267650  0.61046350  0.87925300  1
  P  P31  1  0.27267650  0.38953650  0.37925300  1
  O  O32  1  0.15913500  0.00206000  0.60056600  1
  O  O33  1  0.21976000  0.17935400  0.81105000  1
  O  O34  1  0.15913500  0.99794000  0.10056600  1
  O  O35  1  0.21976000  0.82064600  0.31105000  1
  O  O36  1  0.34111700  0.33403500  0.61221500  1
  O  O37  1  0.39720750  0.87472750  0.74270300  1
  O  O38  1  0.37288250  0.10278750  0.67140100  1
  O  O39  1  0.53496350  0.72267650  0.96363500  1
  O  O40  1  0.46503650  0.72267650  0.53636500  1
  O  O41  1  0.34111700  0.66596500  0.11221500  1
  O  O42  1  0.39720750  0.12527250  0.24270300  1
  O  O43  1  0.37288250  0.89721250  0.17140100  1
  O  O44  1  0.62711750  0.10278750  0.82859900  1
  O  O45  1  0.60279250  0.87472750  0.75729700  1
  O  O46  1  0.65888300  0.33403500  0.88778500  1
  O  O47  1  0.53496350  0.27732350  0.46363500  1
  O  O48  1  0.46503650  0.27732350  0.03636500  1
  O  O49  1  0.62711750  0.89721250  0.32859900  1
  O  O50  1  0.60279250  0.12527250  0.25729700  1
  O  O51  1  0.65888300  0.66596500  0.38778500  1
  O  O52  1  0.78024000  0.17935400  0.68895000  1
  O  O53  1  0.84086500  0.00206000  0.89943400  1
  O  O54  1  0.78024000  0.82064600  0.18895000  1
  O  O55  1  0.84086500  0.99794000  0.39943400  1
  O  O56  1  0.65913500  0.50206000  0.60056600  1
  O  O57  1  0.71976000  0.67935400  0.81105000  1
  O  O58  1  0.65913500  0.49794000  0.10056600  1
  O  O59  1  0.71976000  0.32064600  0.31105000  1
  O  O60  1  0.84111700  0.83403500  0.61221500  1
  O  O61  1  0.89720750  0.37472750  0.74270300  1
  O  O62  1  0.87288250  0.60278750  0.67140100  1
  O  O63  1  0.03496350  0.22267650  0.96363500  1
  O  O64  1  0.96503650  0.22267650  0.53636500  1
  O  O65  1  0.84111700  0.16596500  0.11221500  1
  O  O66  1  0.89720750  0.62527250  0.24270300  1
  O  O67  1  0.87288250  0.39721250  0.17140100  1
  O  O68  1  0.12711750  0.60278750  0.82859900  1
  O  O69  1  0.10279250  0.37472750  0.75729700  1
  O  O70  1  0.15888300  0.83403500  0.88778500  1
  O  O71  1  0.03496350  0.77732350  0.46363500  1
  O  O72  1  0.96503650  0.77732350  0.03636500  1
  O  O73  1  0.12711750  0.39721250  0.32859900  1
  O  O74  1  0.10279250  0.62527250  0.25729700  1
  O  O75  1  0.15888300  0.16596500  0.38778500  1
  O  O76  1  0.28024000  0.67935400  0.68895000  1
  O  O77  1  0.34086500  0.50206000  0.89943400  1
  O  O78  1  0.28024000  0.32064600  0.18895000  1
  O  O79  1  0.34086500  0.49794000  0.39943400  1
