# generated using pymatgen
data_LiAg2F4
_symmetry_space_group_name_H-M   'P 1'
_cell_length_a   11.40428400
_cell_length_b   11.54615400
_cell_length_c   6.17348000
_cell_angle_alpha   90.00000000
_cell_angle_beta   90.00000000
_cell_angle_gamma   90.00000000
_symmetry_Int_Tables_number   1
_chemical_formula_structural   LiAg2F4
_chemical_formula_sum   'Li8 Ag16 F32'
_cell_volume   812.89680238
_cell_formula_units_Z   8
loop_
 _symmetry_equiv_pos_site_id
 _symmetry_equiv_pos_as_xyz
  1  'x, y, z'
loop_
 _atom_site_type_symbol
 _atom_site_label
 _atom_site_symmetry_multiplicity
 _atom_site_fract_x
 _atom_site_fract_y
 _atom_site_fract_z
 _atom_site_occupancy
  Li  Li0  1  0.25000000  0.75000000  0.77922400  1
  Li  Li1  1  0.25000000  0.75000000  0.27922400  1
  Li  Li2  1  0.25000000  0.25000000  0.22077600  1
  Li  Li3  1  0.25000000  0.25000000  0.72077600  1
  Li  Li4  1  0.75000000  0.25000000  0.77922400  1
  Li  Li5  1  0.75000000  0.25000000  0.27922400  1
  Li  Li6  1  0.75000000  0.75000000  0.22077600  1
  Li  Li7  1  0.75000000  0.75000000  0.72077600  1
  Ag  Ag8  1  0.83081000  0.00000000  0.50000000  1
  Ag  Ag9  1  0.50000000  0.34494300  0.00000000  1
  Ag  Ag10  1  0.50000000  0.65505700  0.00000000  1
  Ag  Ag11  1  0.16919000  0.00000000  0.50000000  1
  Ag  Ag12  1  0.50000000  0.84494300  0.50000000  1
  Ag  Ag13  1  0.33081000  0.00000000  0.00000000  1
  Ag  Ag14  1  0.50000000  0.15505700  0.50000000  1
  Ag  Ag15  1  0.66919000  0.00000000  0.00000000  1
  Ag  Ag16  1  0.33081000  0.50000000  0.50000000  1
  Ag  Ag17  1  0.00000000  0.84494300  0.00000000  1
  Ag  Ag18  1  0.00000000  0.15505700  0.00000000  1
  Ag  Ag19  1  0.66919000  0.50000000  0.50000000  1
  Ag  Ag20  1  0.00000000  0.34494300  0.50000000  1
  Ag  Ag21  1  0.83081000  0.50000000  0.00000000  1
  Ag  Ag22  1  0.00000000  0.65505700  0.50000000  1
  Ag  Ag23  1  0.16919000  0.50000000  0.00000000  1
  F  F24  1  0.60244900  0.15858300  0.79203900  1
  F  F25  1  0.66167650  0.10898450  0.31724700  1
  F  F26  1  0.83832350  0.10898450  0.81724700  1
  F  F27  1  0.60244900  0.34141700  0.29203900  1
  F  F28  1  0.39755100  0.65858300  0.29203900  1
  F  F29  1  0.16167650  0.89101550  0.81724700  1
  F  F30  1  0.33832350  0.89101550  0.31724700  1
  F  F31  1  0.39755100  0.84141700  0.79203900  1
  F  F32  1  0.60244900  0.65858300  0.70796100  1
  F  F33  1  0.16167650  0.10898450  0.18275300  1
  F  F34  1  0.33832350  0.10898450  0.68275300  1
  F  F35  1  0.60244900  0.84141700  0.20796100  1
  F  F36  1  0.39755100  0.15858300  0.20796100  1
  F  F37  1  0.66167650  0.89101550  0.68275300  1
  F  F38  1  0.83832350  0.89101550  0.18275300  1
  F  F39  1  0.39755100  0.34141700  0.70796100  1
  F  F40  1  0.10244900  0.65858300  0.79203900  1
  F  F41  1  0.16167650  0.60898450  0.31724700  1
  F  F42  1  0.33832350  0.60898450  0.81724700  1
  F  F43  1  0.10244900  0.84141700  0.29203900  1
  F  F44  1  0.89755100  0.15858300  0.29203900  1
  F  F45  1  0.66167650  0.39101550  0.81724700  1
  F  F46  1  0.83832350  0.39101550  0.31724700  1
  F  F47  1  0.89755100  0.34141700  0.79203900  1
  F  F48  1  0.10244900  0.15858300  0.70796100  1
  F  F49  1  0.66167650  0.60898450  0.18275300  1
  F  F50  1  0.83832350  0.60898450  0.68275300  1
  F  F51  1  0.10244900  0.34141700  0.20796100  1
  F  F52  1  0.89755100  0.65858300  0.20796100  1
  F  F53  1  0.16167650  0.39101550  0.68275300  1
  F  F54  1  0.33832350  0.39101550  0.18275300  1
  F  F55  1  0.89755100  0.84141700  0.70796100  1
