# generated using pymatgen
data_Dy2Mg
_symmetry_space_group_name_H-M   'P 1'
_cell_length_a   3.67866400
_cell_length_b   17.09102800
_cell_length_c   5.48139400
_cell_angle_alpha   90.00000000
_cell_angle_beta   90.00000000
_cell_angle_gamma   90.00000000
_symmetry_Int_Tables_number   1
_chemical_formula_structural   Dy2Mg
_chemical_formula_sum   'Dy8 Mg4'
_cell_volume   344.62702263
_cell_formula_units_Z   4
loop_
 _symmetry_equiv_pos_site_id
 _symmetry_equiv_pos_as_xyz
  1  'x, y, z'
loop_
 _atom_site_type_symbol
 _atom_site_label
 _atom_site_symmetry_multiplicity
 _atom_site_fract_x
 _atom_site_fract_y
 _atom_site_fract_z
 _atom_site_occupancy
  Dy  Dy0  1  0.50000000  0.90647700  0.75000000  1
  Dy  Dy1  1  0.00000000  0.72639500  0.75000000  1
  Dy  Dy2  1  0.00000000  0.59352300  0.25000000  1
  Dy  Dy3  1  0.50000000  0.77360500  0.25000000  1
  Dy  Dy4  1  0.00000000  0.40647700  0.75000000  1
  Dy  Dy5  1  0.50000000  0.22639500  0.75000000  1
  Dy  Dy6  1  0.50000000  0.09352300  0.25000000  1
  Dy  Dy7  1  0.00000000  0.27360500  0.25000000  1
  Mg  Mg8  1  0.50000000  0.56522000  0.75000000  1
  Mg  Mg9  1  0.00000000  0.93478000  0.25000000  1
  Mg  Mg10  1  0.00000000  0.06522000  0.75000000  1
  Mg  Mg11  1  0.50000000  0.43478000  0.25000000  1
