# generated using pymatgen
data_Li4Mn2Nb3Cr3O16
_symmetry_space_group_name_H-M   'P 1'
_cell_length_a   10.52472000
_cell_length_b   6.14223200
_cell_length_c   10.04940386
_cell_angle_alpha   90.00000000
_cell_angle_beta   90.14199378
_cell_angle_gamma   90.00000000
_symmetry_Int_Tables_number   1
_chemical_formula_structural   Li4Mn2Nb3Cr3O16
_chemical_formula_sum   'Li8 Mn4 Nb6 Cr6 O32'
_cell_volume   649.64445076
_cell_formula_units_Z   2
loop_
 _symmetry_equiv_pos_site_id
 _symmetry_equiv_pos_as_xyz
  1  'x, y, z'
loop_
 _atom_site_type_symbol
 _atom_site_label
 _atom_site_symmetry_multiplicity
 _atom_site_fract_x
 _atom_site_fract_y
 _atom_site_fract_z
 _atom_site_occupancy
  Li  Li0  1  0.66686700  0.00000000  0.90348900  1
  Li  Li1  1  0.00691900  0.00000000  0.00441600  1
  Li  Li2  1  0.00932100  0.00000000  0.49139400  1
  Li  Li3  1  0.33639700  0.00000000  0.37340800  1
  Li  Li4  1  0.16686700  0.50000000  0.90348900  1
  Li  Li5  1  0.50691900  0.50000000  0.00441600  1
  Li  Li6  1  0.50932100  0.50000000  0.49139400  1
  Li  Li7  1  0.83639700  0.50000000  0.37340800  1
  Mn  Mn8  1  0.65680700  0.00000000  0.48102500  1
  Mn  Mn9  1  0.32876800  0.00000000  0.01618900  1
  Mn  Mn10  1  0.15680700  0.50000000  0.48102500  1
  Mn  Mn11  1  0.82876800  0.50000000  0.01618900  1
  Nb  Nb12  1  0.82888700  0.00000000  0.21627000  1
  Nb  Nb13  1  0.41261000  0.24753500  0.71533900  1
  Nb  Nb14  1  0.41261000  0.75246500  0.71533900  1
  Nb  Nb15  1  0.32888700  0.50000000  0.21627000  1
  Nb  Nb16  1  0.91261000  0.74753500  0.71533900  1
  Nb  Nb17  1  0.91261000  0.25246500  0.71533900  1
  Cr  Cr18  1  0.58390250  0.24800050  0.21505600  1
  Cr  Cr19  1  0.58390250  0.75199950  0.21505600  1
  Cr  Cr20  1  0.16674100  0.00000000  0.71499400  1
  Cr  Cr21  1  0.08390250  0.74800050  0.21505600  1
  Cr  Cr22  1  0.08390250  0.25199950  0.21505600  1
  Cr  Cr23  1  0.66674100  0.50000000  0.71499400  1
  O  O24  1  0.57430150  0.26719050  0.60821100  1
  O  O25  1  0.51776500  0.00000000  0.32854300  1
  O  O26  1  0.66848300  0.00000000  0.10446500  1
  O  O27  1  0.00021800  0.00000000  0.31300800  1
  O  O28  1  0.99994000  0.00000000  0.81746400  1
  O  O29  1  0.57430150  0.73280950  0.60821100  1
  O  O30  1  0.74634900  0.22491200  0.33169800  1
  O  O31  1  0.74634900  0.77508800  0.33169800  1
  O  O32  1  0.15538400  0.00000000  0.10829000  1
  O  O33  1  0.84175100  0.00000000  0.60483200  1
  O  O34  1  0.26046500  0.22963100  0.82690300  1
  O  O35  1  0.26046500  0.77036900  0.82690300  1
  O  O36  1  0.33398800  0.00000000  0.60432700  1
  O  O37  1  0.42016400  0.26972800  0.10359400  1
  O  O38  1  0.48674000  0.00000000  0.82415700  1
  O  O39  1  0.42016400  0.73027200  0.10359400  1
  O  O40  1  0.07430150  0.76719050  0.60821100  1
  O  O41  1  0.01776500  0.50000000  0.32854300  1
  O  O42  1  0.16848300  0.50000000  0.10446500  1
  O  O43  1  0.50021800  0.50000000  0.31300800  1
  O  O44  1  0.49994000  0.50000000  0.81746400  1
  O  O45  1  0.07430150  0.23280950  0.60821100  1
  O  O46  1  0.24634900  0.72491200  0.33169800  1
  O  O47  1  0.24634900  0.27508800  0.33169800  1
  O  O48  1  0.65538400  0.50000000  0.10829000  1
  O  O49  1  0.34175100  0.50000000  0.60483200  1
  O  O50  1  0.76046500  0.72963100  0.82690300  1
  O  O51  1  0.76046500  0.27036900  0.82690300  1
  O  O52  1  0.83398800  0.50000000  0.60432700  1
  O  O53  1  0.92016400  0.76972800  0.10359400  1
  O  O54  1  0.98674000  0.50000000  0.82415700  1
  O  O55  1  0.92016400  0.23027200  0.10359400  1
