# generated using pymatgen
data_LiV2CrO6
_symmetry_space_group_name_H-M   'P 1'
_cell_length_a   5.03805781
_cell_length_b   5.03805781
_cell_length_c   13.88146512
_cell_angle_alpha   90.00000000
_cell_angle_beta   90.00000000
_cell_angle_gamma   120.00000000
_symmetry_Int_Tables_number   1
_chemical_formula_structural   LiV2CrO6
_chemical_formula_sum   'Li3 V6 Cr3 O18'
_cell_volume   305.13514411
_cell_formula_units_Z   3
loop_
 _symmetry_equiv_pos_site_id
 _symmetry_equiv_pos_as_xyz
  1  'x, y, z'
loop_
 _atom_site_type_symbol
 _atom_site_label
 _atom_site_symmetry_multiplicity
 _atom_site_fract_x
 _atom_site_fract_y
 _atom_site_fract_z
 _atom_site_occupancy
  Li  Li0  1  0.66666667  0.33333333  0.04361033  1
  Li  Li1  1  0.33333333  0.66666667  0.37694367  1
  Li  Li2  1  0.00000000  0.00000000  0.71027700  1
  V  V3  1  0.66666667  0.33333333  0.33058000  1
  V  V4  1  0.33333333  0.66666667  0.16964667  1
  V  V5  1  0.33333333  0.66666667  0.66391333  1
  V  V6  1  0.00000000  0.00000000  0.50298000  1
  V  V7  1  0.00000000  0.00000000  0.99724667  1
  V  V8  1  0.66666667  0.33333333  0.83631333  1
  Cr  Cr9  1  0.00000000  0.00000000  0.19900233  1
  Cr  Cr10  1  0.66666667  0.33333333  0.53233567  1
  Cr  Cr11  1  0.33333333  0.66666667  0.86566900  1
  O  O12  1  0.63531133  0.97809667  0.26053467  1
  O  O13  1  0.34278533  0.36468867  0.26053467  1
  O  O14  1  0.02190333  0.65721467  0.26053467  1
  O  O15  1  0.67240467  0.71714033  0.10280633  1
  O  O16  1  0.28285967  0.95526433  0.10280633  1
  O  O17  1  0.04473567  0.32759533  0.10280633  1
  O  O18  1  0.30197800  0.31143000  0.59386800  1
  O  O19  1  0.00945200  0.69802200  0.59386800  1
  O  O20  1  0.68857000  0.99054800  0.59386800  1
  O  O21  1  0.33907133  0.05047367  0.43613967  1
  O  O22  1  0.94952633  0.28859767  0.43613967  1
  O  O23  1  0.71140233  0.66092867  0.43613967  1
  O  O24  1  0.96864467  0.64476333  0.92720133  1
  O  O25  1  0.67611867  0.03135533  0.92720133  1
  O  O26  1  0.35523667  0.32388133  0.92720133  1
  O  O27  1  0.00573800  0.38380700  0.76947300  1
  O  O28  1  0.61619300  0.62193100  0.76947300  1
  O  O29  1  0.37806900  0.99426200  0.76947300  1
