# generated using pymatgen
data_Ce2CrN3
_symmetry_space_group_name_H-M   'P 1'
_cell_length_a   3.46259400
_cell_length_b   3.74137200
_cell_length_c   12.59398200
_cell_angle_alpha   90.00000000
_cell_angle_beta   90.00000000
_cell_angle_gamma   90.00000000
_symmetry_Int_Tables_number   1
_chemical_formula_structural   Ce2CrN3
_chemical_formula_sum   'Ce4 Cr2 N6'
_cell_volume   163.15317591
_cell_formula_units_Z   2
loop_
 _symmetry_equiv_pos_site_id
 _symmetry_equiv_pos_as_xyz
  1  'x, y, z'
loop_
 _atom_site_type_symbol
 _atom_site_label
 _atom_site_symmetry_multiplicity
 _atom_site_fract_x
 _atom_site_fract_y
 _atom_site_fract_z
 _atom_site_occupancy
  Ce  Ce0  1  0.00000000  0.00000000  0.64706200  1
  Ce  Ce1  1  0.50000000  0.50000000  0.85293800  1
  Ce  Ce2  1  0.50000000  0.50000000  0.14706200  1
  Ce  Ce3  1  0.00000000  0.00000000  0.35293800  1
  Cr  Cr4  1  0.00000000  0.00000000  0.00000000  1
  Cr  Cr5  1  0.50000000  0.50000000  0.50000000  1
  N  N6  1  0.00000000  0.00000000  0.83623100  1
  N  N7  1  0.50000000  0.50000000  0.66376900  1
  N  N8  1  0.00000000  0.50000000  0.00000000  1
  N  N9  1  0.50000000  0.50000000  0.33623100  1
  N  N10  1  0.00000000  0.00000000  0.16376900  1
  N  N11  1  0.50000000  0.00000000  0.50000000  1
