# generated using pymatgen
data_CuSeO4
_symmetry_space_group_name_H-M   'P 1'
_cell_length_a   5.57751000
_cell_length_b   8.12484600
_cell_length_c   6.67532800
_cell_angle_alpha   90.00000000
_cell_angle_beta   90.00000000
_cell_angle_gamma   90.00000000
_symmetry_Int_Tables_number   1
_chemical_formula_structural   CuSeO4
_chemical_formula_sum   'Cu4 Se4 O16'
_cell_volume   302.50189929
_cell_formula_units_Z   4
loop_
 _symmetry_equiv_pos_site_id
 _symmetry_equiv_pos_as_xyz
  1  'x, y, z'
loop_
 _atom_site_type_symbol
 _atom_site_label
 _atom_site_symmetry_multiplicity
 _atom_site_fract_x
 _atom_site_fract_y
 _atom_site_fract_z
 _atom_site_occupancy
  Cu  Cu0  1  0.00000000  0.00000000  0.00000000  1
  Cu  Cu1  1  0.00000000  0.00000000  0.50000000  1
  Cu  Cu2  1  0.50000000  0.50000000  0.00000000  1
  Cu  Cu3  1  0.50000000  0.50000000  0.50000000  1
  Se  Se4  1  0.50000000  0.84807000  0.25000000  1
  Se  Se5  1  0.50000000  0.15193000  0.75000000  1
  Se  Se6  1  0.00000000  0.34807000  0.25000000  1
  Se  Se7  1  0.00000000  0.65193000  0.75000000  1
  O  O8  1  0.50000000  0.73857200  0.46223900  1
  O  O9  1  0.50000000  0.26142800  0.53776100  1
  O  O10  1  0.25196800  0.02882900  0.75000000  1
  O  O11  1  0.74803200  0.97117100  0.25000000  1
  O  O12  1  0.50000000  0.73857200  0.03776100  1
  O  O13  1  0.50000000  0.26142800  0.96223900  1
  O  O14  1  0.74803200  0.02882900  0.75000000  1
  O  O15  1  0.25196800  0.97117100  0.25000000  1
  O  O16  1  0.00000000  0.23857200  0.46223900  1
  O  O17  1  0.00000000  0.76142800  0.53776100  1
  O  O18  1  0.75196800  0.52882900  0.75000000  1
  O  O19  1  0.24803200  0.47117100  0.25000000  1
  O  O20  1  0.00000000  0.23857200  0.03776100  1
  O  O21  1  0.00000000  0.76142800  0.96223900  1
  O  O22  1  0.24803200  0.52882900  0.75000000  1
  O  O23  1  0.75196800  0.47117100  0.25000000  1
