# generated using pymatgen
data_KYb(CO3)2
_symmetry_space_group_name_H-M   'P 1'
_cell_length_a   8.46684400
_cell_length_b   9.92308400
_cell_length_c   7.07756294
_cell_angle_alpha   90.00000000
_cell_angle_beta   110.40859760
_cell_angle_gamma   90.00000000
_symmetry_Int_Tables_number   1
_chemical_formula_structural   KYb(CO3)2
_chemical_formula_sum   'K4 Yb4 C8 O24'
_cell_volume   557.31148883
_cell_formula_units_Z   4
loop_
 _symmetry_equiv_pos_site_id
 _symmetry_equiv_pos_as_xyz
  1  'x, y, z'
loop_
 _atom_site_type_symbol
 _atom_site_label
 _atom_site_symmetry_multiplicity
 _atom_site_fract_x
 _atom_site_fract_y
 _atom_site_fract_z
 _atom_site_occupancy
  K  K0  1  0.50000000  0.62783100  0.25000000  1
  K  K1  1  0.50000000  0.37216900  0.75000000  1
  K  K2  1  0.00000000  0.12783100  0.25000000  1
  K  K3  1  0.00000000  0.87216900  0.75000000  1
  Yb  Yb4  1  0.50000000  0.09388000  0.25000000  1
  Yb  Yb5  1  0.50000000  0.90612000  0.75000000  1
  Yb  Yb6  1  0.00000000  0.59388000  0.25000000  1
  Yb  Yb7  1  0.00000000  0.40612000  0.75000000  1
  C  C8  1  0.73170900  0.12570100  0.74802900  1
  C  C9  1  0.26829100  0.12570100  0.75197100  1
  C  C10  1  0.26829100  0.87429900  0.25197100  1
  C  C11  1  0.73170900  0.87429900  0.24802900  1
  C  C12  1  0.23170900  0.62570100  0.74802900  1
  C  C13  1  0.76829100  0.62570100  0.75197100  1
  C  C14  1  0.76829100  0.37429900  0.25197100  1
  C  C15  1  0.23170900  0.37429900  0.24802900  1
  O  O16  1  0.31963300  0.26607500  0.27890600  1
  O  O17  1  0.68036700  0.26607500  0.22109400  1
  O  O18  1  0.68036700  0.73392500  0.72109400  1
  O  O19  1  0.31963300  0.73392500  0.77890600  1
  O  O20  1  0.77784900  0.97687200  0.36569400  1
  O  O21  1  0.22215100  0.97687200  0.13430600  1
  O  O22  1  0.22215100  0.02312800  0.63430600  1
  O  O23  1  0.77784900  0.02312800  0.86569400  1
  O  O24  1  0.58844500  0.88131300  0.09964300  1
  O  O25  1  0.41155500  0.88131300  0.40035700  1
  O  O26  1  0.41155500  0.11868700  0.90035700  1
  O  O27  1  0.58844500  0.11868700  0.59964300  1
  O  O28  1  0.81963300  0.76607500  0.27890600  1
  O  O29  1  0.18036700  0.76607500  0.22109400  1
  O  O30  1  0.18036700  0.23392500  0.72109400  1
  O  O31  1  0.81963300  0.23392500  0.77890600  1
  O  O32  1  0.27784900  0.47687200  0.36569400  1
  O  O33  1  0.72215100  0.47687200  0.13430600  1
  O  O34  1  0.72215100  0.52312800  0.63430600  1
  O  O35  1  0.27784900  0.52312800  0.86569400  1
  O  O36  1  0.08844500  0.38131300  0.09964300  1
  O  O37  1  0.91155500  0.38131300  0.40035700  1
  O  O38  1  0.91155500  0.61868700  0.90035700  1
  O  O39  1  0.08844500  0.61868700  0.59964300  1
