# generated using pymatgen
data_RbTi5Se8
_symmetry_space_group_name_H-M   'P 1'
_cell_length_a   19.02237800
_cell_length_b   3.64797600
_cell_length_c   9.23866926
_cell_angle_alpha   90.00000000
_cell_angle_beta   104.73258797
_cell_angle_gamma   90.00000000
_symmetry_Int_Tables_number   1
_chemical_formula_structural   RbTi5Se8
_chemical_formula_sum   'Rb2 Ti10 Se16'
_cell_volume   620.02333033
_cell_formula_units_Z   2
loop_
 _symmetry_equiv_pos_site_id
 _symmetry_equiv_pos_as_xyz
  1  'x, y, z'
loop_
 _atom_site_type_symbol
 _atom_site_label
 _atom_site_symmetry_multiplicity
 _atom_site_fract_x
 _atom_site_fract_y
 _atom_site_fract_z
 _atom_site_occupancy
  Rb  Rb0  1  0.00000000  0.50000000  0.50000000  1
  Rb  Rb1  1  0.50000000  0.00000000  0.50000000  1
  Ti  Ti2  1  0.00000000  0.00000000  0.00000000  1
  Ti  Ti3  1  0.34250900  0.00000000  0.99791500  1
  Ti  Ti4  1  0.29211500  0.00000000  0.65291000  1
  Ti  Ti5  1  0.20788500  0.50000000  0.34709000  1
  Ti  Ti6  1  0.15749100  0.50000000  0.00208500  1
  Ti  Ti7  1  0.50000000  0.50000000  0.00000000  1
  Ti  Ti8  1  0.84250900  0.50000000  0.99791500  1
  Ti  Ti9  1  0.79211500  0.50000000  0.65291000  1
  Ti  Ti10  1  0.70788500  0.00000000  0.34709000  1
  Ti  Ti11  1  0.65749100  0.00000000  0.00208500  1
  Se  Se12  1  0.42602100  0.00000000  0.82607100  1
  Se  Se13  1  0.41146200  0.50000000  0.17347000  1
  Se  Se14  1  0.33816500  0.50000000  0.50208500  1
  Se  Se15  1  0.25586300  0.50000000  0.83267600  1
  Se  Se16  1  0.24413700  0.00000000  0.16732400  1
  Se  Se17  1  0.16183500  0.00000000  0.49791500  1
  Se  Se18  1  0.08853800  0.00000000  0.82653000  1
  Se  Se19  1  0.07397900  0.50000000  0.17392900  1
  Se  Se20  1  0.92602100  0.50000000  0.82607100  1
  Se  Se21  1  0.91146200  0.00000000  0.17347000  1
  Se  Se22  1  0.83816500  0.00000000  0.50208500  1
  Se  Se23  1  0.75586300  0.00000000  0.83267600  1
  Se  Se24  1  0.74413700  0.50000000  0.16732400  1
  Se  Se25  1  0.66183500  0.50000000  0.49791500  1
  Se  Se26  1  0.58853800  0.50000000  0.82653000  1
  Se  Se27  1  0.57397900  0.00000000  0.17392900  1
