# generated using pymatgen
data_RbInBr3
_symmetry_space_group_name_H-M   'P 1'
_cell_length_a   8.10627000
_cell_length_b   8.11650200
_cell_length_c   5.73371368
_cell_angle_alpha   90.00000000
_cell_angle_beta   90.10528406
_cell_angle_gamma   90.00000000
_symmetry_Int_Tables_number   1
_chemical_formula_structural   RbInBr3
_chemical_formula_sum   'Rb2 In2 Br6'
_cell_volume   377.24651274
_cell_formula_units_Z   2
loop_
 _symmetry_equiv_pos_site_id
 _symmetry_equiv_pos_as_xyz
  1  'x, y, z'
loop_
 _atom_site_type_symbol
 _atom_site_label
 _atom_site_symmetry_multiplicity
 _atom_site_fract_x
 _atom_site_fract_y
 _atom_site_fract_z
 _atom_site_occupancy
  Rb  Rb0  1  0.00086200  0.00000000  0.00142000  1
  Rb  Rb1  1  0.50086200  0.50000000  0.00142000  1
  In  In2  1  0.50439200  0.00000000  0.51690700  1
  In  In3  1  0.00439200  0.50000000  0.51690700  1
  Br  Br4  1  0.25248750  0.74809150  0.51459700  1
  Br  Br5  1  0.49420100  0.00000000  0.01549000  1
  Br  Br6  1  0.25248750  0.25190850  0.51459700  1
  Br  Br7  1  0.75248750  0.24809150  0.51459700  1
  Br  Br8  1  0.99420100  0.50000000  0.01549000  1
  Br  Br9  1  0.75248750  0.75190850  0.51459700  1
