# generated using pymatgen
data_NdAl2Cu9
_symmetry_space_group_name_H-M   'P 1'
_cell_length_a   10.15098600
_cell_length_b   10.15098600
_cell_length_c   6.61181400
_cell_angle_alpha   90.00000000
_cell_angle_beta   90.00000000
_cell_angle_gamma   90.00000000
_symmetry_Int_Tables_number   1
_chemical_formula_structural   NdAl2Cu9
_chemical_formula_sum   'Nd4 Al8 Cu36'
_cell_volume   681.29795499
_cell_formula_units_Z   4
loop_
 _symmetry_equiv_pos_site_id
 _symmetry_equiv_pos_as_xyz
  1  'x, y, z'
loop_
 _atom_site_type_symbol
 _atom_site_label
 _atom_site_symmetry_multiplicity
 _atom_site_fract_x
 _atom_site_fract_y
 _atom_site_fract_z
 _atom_site_occupancy
  Nd  Nd0  1  0.50000000  0.00000000  0.25000000  1
  Nd  Nd1  1  0.00000000  0.00000000  0.00000000  1
  Nd  Nd2  1  0.00000000  0.50000000  0.75000000  1
  Nd  Nd3  1  0.50000000  0.50000000  0.50000000  1
  Al  Al4  1  0.00000000  0.75000000  0.37500000  1
  Al  Al5  1  0.00000000  0.25000000  0.37500000  1
  Al  Al6  1  0.75000000  0.00000000  0.62500000  1
  Al  Al7  1  0.25000000  0.00000000  0.62500000  1
  Al  Al8  1  0.50000000  0.25000000  0.87500000  1
  Al  Al9  1  0.50000000  0.75000000  0.87500000  1
  Al  Al10  1  0.25000000  0.50000000  0.12500000  1
  Al  Al11  1  0.75000000  0.50000000  0.12500000  1
  Cu  Cu12  1  0.70713400  0.87725400  0.94374700  1
  Cu  Cu13  1  0.29286600  0.12274600  0.94374700  1
  Cu  Cu14  1  0.20713400  0.12274600  0.30625300  1
  Cu  Cu15  1  0.79286600  0.87725400  0.30625300  1
  Cu  Cu16  1  0.12274600  0.29286600  0.05625300  1
  Cu  Cu17  1  0.87725400  0.70713400  0.05625300  1
  Cu  Cu18  1  0.87725400  0.79286600  0.69374700  1
  Cu  Cu19  1  0.12274600  0.20713400  0.69374700  1
  Cu  Cu20  1  0.79286600  0.12274600  0.30625300  1
  Cu  Cu21  1  0.20713400  0.87725400  0.30625300  1
  Cu  Cu22  1  0.29286600  0.87725400  0.94374700  1
  Cu  Cu23  1  0.70713400  0.12274600  0.94374700  1
  Cu  Cu24  1  0.87725400  0.20713400  0.69374700  1
  Cu  Cu25  1  0.12274600  0.79286600  0.69374700  1
  Cu  Cu26  1  0.12274600  0.70713400  0.05625300  1
  Cu  Cu27  1  0.87725400  0.29286600  0.05625300  1
  Cu  Cu28  1  0.00000000  0.00000000  0.50000000  1
  Cu  Cu29  1  0.50000000  0.00000000  0.75000000  1
  Cu  Cu30  1  0.20713400  0.37725400  0.44374700  1
  Cu  Cu31  1  0.79286600  0.62274600  0.44374700  1
  Cu  Cu32  1  0.70713400  0.62274600  0.80625300  1
  Cu  Cu33  1  0.29286600  0.37725400  0.80625300  1
  Cu  Cu34  1  0.62274600  0.79286600  0.55625300  1
  Cu  Cu35  1  0.37725400  0.20713400  0.55625300  1
  Cu  Cu36  1  0.37725400  0.29286600  0.19374700  1
  Cu  Cu37  1  0.62274600  0.70713400  0.19374700  1
  Cu  Cu38  1  0.29286600  0.62274600  0.80625300  1
  Cu  Cu39  1  0.70713400  0.37725400  0.80625300  1
  Cu  Cu40  1  0.79286600  0.37725400  0.44374700  1
  Cu  Cu41  1  0.20713400  0.62274600  0.44374700  1
  Cu  Cu42  1  0.37725400  0.70713400  0.19374700  1
  Cu  Cu43  1  0.62274600  0.29286600  0.19374700  1
  Cu  Cu44  1  0.62274600  0.20713400  0.55625300  1
  Cu  Cu45  1  0.37725400  0.79286600  0.55625300  1
  Cu  Cu46  1  0.50000000  0.50000000  0.00000000  1
  Cu  Cu47  1  0.00000000  0.50000000  0.25000000  1
