# generated using pymatgen
data_NdAu
_symmetry_space_group_name_H-M   'P 1'
_cell_length_a   3.89086200
_cell_length_b   11.36726000
_cell_length_c   4.79658900
_cell_angle_alpha   90.00000000
_cell_angle_beta   90.00000000
_cell_angle_gamma   90.00000000
_symmetry_Int_Tables_number   1
_chemical_formula_structural   NdAu
_chemical_formula_sum   'Nd4 Au4'
_cell_volume   212.14564869
_cell_formula_units_Z   4
loop_
 _symmetry_equiv_pos_site_id
 _symmetry_equiv_pos_as_xyz
  1  'x, y, z'
loop_
 _atom_site_type_symbol
 _atom_site_label
 _atom_site_symmetry_multiplicity
 _atom_site_fract_x
 _atom_site_fract_y
 _atom_site_fract_z
 _atom_site_occupancy
  Nd  Nd0  1  0.50000000  0.63839900  0.75000000  1
  Nd  Nd1  1  0.00000000  0.86160100  0.25000000  1
  Nd  Nd2  1  0.00000000  0.13839900  0.75000000  1
  Nd  Nd3  1  0.50000000  0.36160100  0.25000000  1
  Au  Au4  1  0.50000000  0.91398300  0.75000000  1
  Au  Au5  1  0.00000000  0.58601700  0.25000000  1
  Au  Au6  1  0.00000000  0.41398300  0.75000000  1
  Au  Au7  1  0.50000000  0.08601700  0.25000000  1
