# generated using pymatgen
data_NiBiO3
_symmetry_space_group_name_H-M   'P 1'
_cell_length_a   5.61949800
_cell_length_b   5.46176400
_cell_length_c   3.87091793
_cell_angle_alpha   90.00000000
_cell_angle_beta   91.00623490
_cell_angle_gamma   90.00000000
_symmetry_Int_Tables_number   1
_chemical_formula_structural   NiBiO3
_chemical_formula_sum   'Ni2 Bi2 O6'
_cell_volume   118.78933141
_cell_formula_units_Z   2
loop_
 _symmetry_equiv_pos_site_id
 _symmetry_equiv_pos_as_xyz
  1  'x, y, z'
loop_
 _atom_site_type_symbol
 _atom_site_label
 _atom_site_symmetry_multiplicity
 _atom_site_fract_x
 _atom_site_fract_y
 _atom_site_fract_z
 _atom_site_occupancy
  Ni  Ni0  1  0.49119200  0.00000000  0.50745100  1
  Ni  Ni1  1  0.99119200  0.50000000  0.50745100  1
  Bi  Bi2  1  0.06340400  0.00000000  0.96894900  1
  Bi  Bi3  1  0.56340400  0.50000000  0.96894900  1
  O  O4  1  0.71558850  0.26660350  0.52171800  1
  O  O5  1  0.71558850  0.73339650  0.52171800  1
  O  O6  1  0.46082300  0.00000000  0.00998900  1
  O  O7  1  0.21558850  0.76660350  0.52171800  1
  O  O8  1  0.21558850  0.23339650  0.52171800  1
  O  O9  1  0.96082300  0.50000000  0.00998900  1
