# generated using pymatgen
data_KTi5Se8
_symmetry_space_group_name_H-M   'P 1'
_cell_length_a   18.90805200
_cell_length_b   3.62092200
_cell_length_c   9.23470258
_cell_angle_alpha   90.00000000
_cell_angle_beta   104.89193072
_cell_angle_gamma   90.00000000
_symmetry_Int_Tables_number   1
_chemical_formula_structural   KTi5Se8
_chemical_formula_sum   'K2 Ti10 Se16'
_cell_volume   611.01421121
_cell_formula_units_Z   2
loop_
 _symmetry_equiv_pos_site_id
 _symmetry_equiv_pos_as_xyz
  1  'x, y, z'
loop_
 _atom_site_type_symbol
 _atom_site_label
 _atom_site_symmetry_multiplicity
 _atom_site_fract_x
 _atom_site_fract_y
 _atom_site_fract_z
 _atom_site_occupancy
  K  K0  1  0.00000000  0.50000000  0.50000000  1
  K  K1  1  0.50000000  0.00000000  0.50000000  1
  Ti  Ti2  1  0.00000000  0.00000000  0.00000000  1
  Ti  Ti3  1  0.34426500  0.00000000  0.00097900  1
  Ti  Ti4  1  0.29152800  0.00000000  0.65186100  1
  Ti  Ti5  1  0.20847200  0.50000000  0.34813900  1
  Ti  Ti6  1  0.15573500  0.50000000  0.99902100  1
  Ti  Ti7  1  0.50000000  0.50000000  0.00000000  1
  Ti  Ti8  1  0.84426500  0.50000000  0.00097900  1
  Ti  Ti9  1  0.79152800  0.50000000  0.65186100  1
  Ti  Ti10  1  0.70847200  0.00000000  0.34813900  1
  Ti  Ti11  1  0.65573500  0.00000000  0.99902100  1
  Se  Se12  1  0.42608300  0.00000000  0.82522900  1
  Se  Se13  1  0.41333100  0.50000000  0.17916400  1
  Se  Se14  1  0.33953700  0.50000000  0.50225500  1
  Se  Se15  1  0.25655900  0.50000000  0.83470600  1
  Se  Se16  1  0.24344100  0.00000000  0.16529400  1
  Se  Se17  1  0.16046300  0.00000000  0.49774500  1
  Se  Se18  1  0.08666900  0.00000000  0.82083600  1
  Se  Se19  1  0.07391700  0.50000000  0.17477100  1
  Se  Se20  1  0.92608300  0.50000000  0.82522900  1
  Se  Se21  1  0.91333100  0.00000000  0.17916400  1
  Se  Se22  1  0.83953700  0.00000000  0.50225500  1
  Se  Se23  1  0.75655900  0.00000000  0.83470600  1
  Se  Se24  1  0.74344100  0.50000000  0.16529400  1
  Se  Se25  1  0.66046300  0.50000000  0.49774500  1
  Se  Se26  1  0.58666900  0.50000000  0.82083600  1
  Se  Se27  1  0.57391700  0.00000000  0.17477100  1
