# generated using pymatgen
data_YReN3
_symmetry_space_group_name_H-M   'P 1'
_cell_length_a   11.23193600
_cell_length_b   9.74880400
_cell_length_c   6.33476527
_cell_angle_alpha   90.00000000
_cell_angle_beta   113.40660647
_cell_angle_gamma   90.00000000
_symmetry_Int_Tables_number   1
_chemical_formula_structural   YReN3
_chemical_formula_sum   'Y8 Re8 N24'
_cell_volume   636.56300439
_cell_formula_units_Z   8
loop_
 _symmetry_equiv_pos_site_id
 _symmetry_equiv_pos_as_xyz
  1  'x, y, z'
loop_
 _atom_site_type_symbol
 _atom_site_label
 _atom_site_symmetry_multiplicity
 _atom_site_fract_x
 _atom_site_fract_y
 _atom_site_fract_z
 _atom_site_occupancy
  Y  Y0  1  0.00000000  0.09438600  0.25000000  1
  Y  Y1  1  0.00000000  0.90561400  0.75000000  1
  Y  Y2  1  0.00000000  0.28868400  0.75000000  1
  Y  Y3  1  0.00000000  0.71131600  0.25000000  1
  Y  Y4  1  0.50000000  0.59438600  0.25000000  1
  Y  Y5  1  0.50000000  0.40561400  0.75000000  1
  Y  Y6  1  0.50000000  0.78868400  0.75000000  1
  Y  Y7  1  0.50000000  0.21131600  0.25000000  1
  Re  Re8  1  0.20882950  0.58552250  0.71537900  1
  Re  Re9  1  0.79117050  0.58552250  0.78462100  1
  Re  Re10  1  0.79117050  0.41447750  0.28462100  1
  Re  Re11  1  0.20882950  0.41447750  0.21537900  1
  Re  Re12  1  0.70882950  0.08552250  0.71537900  1
  Re  Re13  1  0.29117050  0.08552250  0.78462100  1
  Re  Re14  1  0.29117050  0.91447750  0.28462100  1
  Re  Re15  1  0.70882950  0.91447750  0.21537900  1
  N  N16  1  0.15290900  0.48356700  0.91267300  1
  N  N17  1  0.12089650  0.74657550  0.65901800  1
  N  N18  1  0.84709100  0.48356700  0.58732700  1
  N  N19  1  0.87910350  0.74657550  0.84098200  1
  N  N20  1  0.61327750  0.60615650  0.66336800  1
  N  N21  1  0.38672250  0.60615650  0.83663200  1
  N  N22  1  0.61327750  0.39384350  0.16336800  1
  N  N23  1  0.87910350  0.25342450  0.34098200  1
  N  N24  1  0.84709100  0.51643300  0.08732700  1
  N  N25  1  0.12089650  0.25342450  0.15901800  1
  N  N26  1  0.15290900  0.51643300  0.41267300  1
  N  N27  1  0.38672250  0.39384350  0.33663200  1
  N  N28  1  0.65290900  0.98356700  0.91267300  1
  N  N29  1  0.62089650  0.24657550  0.65901800  1
  N  N30  1  0.34709100  0.98356700  0.58732700  1
  N  N31  1  0.37910350  0.24657550  0.84098200  1
  N  N32  1  0.11327750  0.10615650  0.66336800  1
  N  N33  1  0.88672250  0.10615650  0.83663200  1
  N  N34  1  0.11327750  0.89384350  0.16336800  1
  N  N35  1  0.37910350  0.75342450  0.34098200  1
  N  N36  1  0.34709100  0.01643300  0.08732700  1
  N  N37  1  0.62089650  0.75342450  0.15901800  1
  N  N38  1  0.65290900  0.01643300  0.41267300  1
  N  N39  1  0.88672250  0.89384350  0.33663200  1
