# generated using pymatgen
data_RbAgBr3
_symmetry_space_group_name_H-M   'P 1'
_cell_length_a   7.70279986
_cell_length_b   7.70314522
_cell_length_c   5.44716971
_cell_angle_alpha   90.00000000
_cell_angle_beta   90.17954711
_cell_angle_gamma   90.00000000
_symmetry_Int_Tables_number   1
_chemical_formula_structural   RbAgBr3
_chemical_formula_sum   'Rb2 Ag2 Br6'
_cell_volume   323.21050876
_cell_formula_units_Z   2
loop_
 _symmetry_equiv_pos_site_id
 _symmetry_equiv_pos_as_xyz
  1  'x, y, z'
loop_
 _atom_site_type_symbol
 _atom_site_label
 _atom_site_symmetry_multiplicity
 _atom_site_fract_x
 _atom_site_fract_y
 _atom_site_fract_z
 _atom_site_occupancy
  Rb  Rb0  1  0.49989124  0.50000000  0.99707052  1
  Rb  Rb1  1  0.99989124  0.00000000  0.99707052  1
  Ag  Ag2  1  0.49599057  0.00000000  0.48387131  1
  Ag  Ag3  1  0.99599057  0.50000000  0.48387131  1
  Br  Br4  1  0.74567857  0.25330275  0.48576284  1
  Br  Br5  1  0.50453422  0.00000000  0.98422108  1
  Br  Br6  1  0.74567857  0.74669725  0.48576284  1
  Br  Br7  1  0.24567857  0.75330275  0.48576284  1
  Br  Br8  1  0.00453422  0.50000000  0.98422108  1
  Br  Br9  1  0.24567857  0.24669725  0.48576284  1
