# generated using pymatgen
data_LiCoSO4F
_symmetry_space_group_name_H-M   'P 1'
_cell_length_a   5.23185797
_cell_length_b   5.50462427
_cell_length_c   7.33762426
_cell_angle_alpha   107.69157677
_cell_angle_beta   108.13412237
_cell_angle_gamma   97.03164660
_symmetry_Int_Tables_number   1
_chemical_formula_structural   LiCoSO4F
_chemical_formula_sum   'Li2 Co2 S2 O8 F2'
_cell_volume   185.74873925
_cell_formula_units_Z   2
loop_
 _symmetry_equiv_pos_site_id
 _symmetry_equiv_pos_as_xyz
  1  'x, y, z'
loop_
 _atom_site_type_symbol
 _atom_site_label
 _atom_site_symmetry_multiplicity
 _atom_site_fract_x
 _atom_site_fract_y
 _atom_site_fract_z
 _atom_site_occupancy
  Li  Li0  1  0.26581500  0.62608250  0.78676500  1
  Li  Li1  1  0.73418500  0.37391750  0.21323500  1
  Co  Co2  1  0.00000000  0.00000000  0.50000000  1
  Co  Co3  1  0.00000000  0.00000000  0.00000000  1
  S  S4  1  0.32614000  0.63635900  0.24625250  1
  S  S5  1  0.67386000  0.36364100  0.75374750  1
  O  O6  1  0.60623300  0.75291300  0.40738800  1
  O  O7  1  0.39376700  0.24708700  0.59261200  1
  O  O8  1  0.10869900  0.65554100  0.33906600  1
  O  O9  1  0.89130100  0.34445900  0.66093400  1
  O  O10  1  0.31861300  0.35304400  0.14295600  1
  O  O11  1  0.68138700  0.64695600  0.85704400  1
  O  O12  1  0.27568800  0.76523450  0.09049250  1
  O  O13  1  0.72431200  0.23476550  0.90950750  1
  F  F14  1  0.11700200  0.90867150  0.75451550  1
  F  F15  1  0.88299800  0.09132850  0.24548450  1
