# generated using pymatgen
data_PrNiGe2
_symmetry_space_group_name_H-M   'P 1'
_cell_length_a   4.26348600
_cell_length_b   16.74142400
_cell_length_c   4.24647300
_cell_angle_alpha   90.00000000
_cell_angle_beta   90.00000000
_cell_angle_gamma   90.00000000
_symmetry_Int_Tables_number   1
_chemical_formula_structural   PrNiGe2
_chemical_formula_sum   'Pr4 Ni4 Ge8'
_cell_volume   303.09976802
_cell_formula_units_Z   4
loop_
 _symmetry_equiv_pos_site_id
 _symmetry_equiv_pos_as_xyz
  1  'x, y, z'
loop_
 _atom_site_type_symbol
 _atom_site_label
 _atom_site_symmetry_multiplicity
 _atom_site_fract_x
 _atom_site_fract_y
 _atom_site_fract_z
 _atom_site_occupancy
  Pr  Pr0  1  0.00000000  0.10847000  0.25000000  1
  Pr  Pr1  1  0.50000000  0.39153000  0.75000000  1
  Pr  Pr2  1  0.50000000  0.60847000  0.25000000  1
  Pr  Pr3  1  0.00000000  0.89153000  0.75000000  1
  Ni  Ni4  1  0.00000000  0.31844600  0.25000000  1
  Ni  Ni5  1  0.50000000  0.18155400  0.75000000  1
  Ni  Ni6  1  0.50000000  0.81844600  0.25000000  1
  Ni  Ni7  1  0.00000000  0.68155400  0.75000000  1
  Ge  Ge8  1  0.00000000  0.45755500  0.25000000  1
  Ge  Ge9  1  0.50000000  0.04244500  0.75000000  1
  Ge  Ge10  1  0.50000000  0.24944700  0.25000000  1
  Ge  Ge11  1  0.00000000  0.25055300  0.75000000  1
  Ge  Ge12  1  0.50000000  0.95755500  0.25000000  1
  Ge  Ge13  1  0.00000000  0.54244500  0.75000000  1
  Ge  Ge14  1  0.00000000  0.74944700  0.25000000  1
  Ge  Ge15  1  0.50000000  0.75055300  0.75000000  1
