# generated using pymatgen
data_CaBiPd2
_symmetry_space_group_name_H-M   'P 1'
_cell_length_a   6.95424800
_cell_length_b   6.95424800
_cell_length_c   6.95424800
_cell_angle_alpha   90.00000000
_cell_angle_beta   90.00000000
_cell_angle_gamma   90.00000000
_symmetry_Int_Tables_number   1
_chemical_formula_structural   CaBiPd2
_chemical_formula_sum   'Ca4 Bi4 Pd8'
_cell_volume   336.31831839
_cell_formula_units_Z   4
loop_
 _symmetry_equiv_pos_site_id
 _symmetry_equiv_pos_as_xyz
  1  'x, y, z'
loop_
 _atom_site_type_symbol
 _atom_site_label
 _atom_site_symmetry_multiplicity
 _atom_site_fract_x
 _atom_site_fract_y
 _atom_site_fract_z
 _atom_site_occupancy
  Ca  Ca0  1  0.00000000  0.00000000  0.00000000  1
  Ca  Ca1  1  0.00000000  0.50000000  0.50000000  1
  Ca  Ca2  1  0.50000000  0.00000000  0.50000000  1
  Ca  Ca3  1  0.50000000  0.50000000  0.00000000  1
  Bi  Bi4  1  0.50000000  0.00000000  0.00000000  1
  Bi  Bi5  1  0.50000000  0.50000000  0.50000000  1
  Bi  Bi6  1  0.00000000  0.00000000  0.50000000  1
  Bi  Bi7  1  0.00000000  0.50000000  0.00000000  1
  Pd  Pd8  1  0.25000000  0.75000000  0.75000000  1
  Pd  Pd9  1  0.25000000  0.25000000  0.75000000  1
  Pd  Pd10  1  0.25000000  0.25000000  0.25000000  1
  Pd  Pd11  1  0.25000000  0.75000000  0.25000000  1
  Pd  Pd12  1  0.75000000  0.75000000  0.25000000  1
  Pd  Pd13  1  0.75000000  0.25000000  0.25000000  1
  Pd  Pd14  1  0.75000000  0.25000000  0.75000000  1
  Pd  Pd15  1  0.75000000  0.75000000  0.75000000  1
