# generated using pymatgen
data_BaCaYb2
_symmetry_space_group_name_H-M   'P 1'
_cell_length_a   8.98452200
_cell_length_b   8.98452200
_cell_length_c   8.98452200
_cell_angle_alpha   90.00000000
_cell_angle_beta   90.00000000
_cell_angle_gamma   90.00000000
_symmetry_Int_Tables_number   1
_chemical_formula_structural   BaCaYb2
_chemical_formula_sum   'Ba4 Ca4 Yb8'
_cell_volume   725.24531064
_cell_formula_units_Z   4
loop_
 _symmetry_equiv_pos_site_id
 _symmetry_equiv_pos_as_xyz
  1  'x, y, z'
loop_
 _atom_site_type_symbol
 _atom_site_label
 _atom_site_symmetry_multiplicity
 _atom_site_fract_x
 _atom_site_fract_y
 _atom_site_fract_z
 _atom_site_occupancy
  Ba  Ba0  1  0.50000000  0.00000000  0.00000000  1
  Ba  Ba1  1  0.50000000  0.50000000  0.50000000  1
  Ba  Ba2  1  0.00000000  0.00000000  0.50000000  1
  Ba  Ba3  1  0.00000000  0.50000000  0.00000000  1
  Ca  Ca4  1  0.00000000  0.00000000  0.00000000  1
  Ca  Ca5  1  0.00000000  0.50000000  0.50000000  1
  Ca  Ca6  1  0.50000000  0.00000000  0.50000000  1
  Ca  Ca7  1  0.50000000  0.50000000  0.00000000  1
  Yb  Yb8  1  0.25000000  0.75000000  0.75000000  1
  Yb  Yb9  1  0.25000000  0.25000000  0.75000000  1
  Yb  Yb10  1  0.25000000  0.25000000  0.25000000  1
  Yb  Yb11  1  0.25000000  0.75000000  0.25000000  1
  Yb  Yb12  1  0.75000000  0.75000000  0.25000000  1
  Yb  Yb13  1  0.75000000  0.25000000  0.25000000  1
  Yb  Yb14  1  0.75000000  0.25000000  0.75000000  1
  Yb  Yb15  1  0.75000000  0.75000000  0.75000000  1
