# generated using pymatgen
data_AgO2F
_symmetry_space_group_name_H-M   'P 1'
_cell_length_a   13.27603000
_cell_length_b   3.90773200
_cell_length_c   4.80947133
_cell_angle_alpha   90.00000000
_cell_angle_beta   100.70404622
_cell_angle_gamma   90.00000000
_symmetry_Int_Tables_number   1
_chemical_formula_structural   AgO2F
_chemical_formula_sum   'Ag4 O8 F4'
_cell_volume   245.16979047
_cell_formula_units_Z   4
loop_
 _symmetry_equiv_pos_site_id
 _symmetry_equiv_pos_as_xyz
  1  'x, y, z'
loop_
 _atom_site_type_symbol
 _atom_site_label
 _atom_site_symmetry_multiplicity
 _atom_site_fract_x
 _atom_site_fract_y
 _atom_site_fract_z
 _atom_site_occupancy
  Ag  Ag0  1  0.17060900  0.50000000  0.71241900  1
  Ag  Ag1  1  0.32939100  0.00000000  0.28758100  1
  Ag  Ag2  1  0.67060900  0.00000000  0.71241900  1
  Ag  Ag3  1  0.82939100  0.50000000  0.28758100  1
  O  O4  1  0.46771650  0.33812250  0.27653200  1
  O  O5  1  0.46771650  0.66187750  0.27653200  1
  O  O6  1  0.03228350  0.83812250  0.72346800  1
  O  O7  1  0.03228350  0.16187750  0.72346800  1
  O  O8  1  0.96771650  0.83812250  0.27653200  1
  O  O9  1  0.96771650  0.16187750  0.27653200  1
  O  O10  1  0.53228350  0.33812250  0.72346800  1
  O  O11  1  0.53228350  0.66187750  0.72346800  1
  F  F12  1  0.24296200  0.50000000  0.25678400  1
  F  F13  1  0.25703800  0.00000000  0.74321600  1
  F  F14  1  0.74296200  0.00000000  0.25678400  1
  F  F15  1  0.75703800  0.50000000  0.74321600  1
