# generated using pymatgen
data_LaMnN3
_symmetry_space_group_name_H-M   'P 1'
_cell_length_a   10.89729000
_cell_length_b   4.06792400
_cell_length_c   7.09218732
_cell_angle_alpha   90.00000000
_cell_angle_beta   119.36630422
_cell_angle_gamma   90.00000000
_symmetry_Int_Tables_number   1
_chemical_formula_structural   LaMnN3
_chemical_formula_sum   'La4 Mn4 N12'
_cell_volume   273.99340229
_cell_formula_units_Z   4
loop_
 _symmetry_equiv_pos_site_id
 _symmetry_equiv_pos_as_xyz
  1  'x, y, z'
loop_
 _atom_site_type_symbol
 _atom_site_label
 _atom_site_symmetry_multiplicity
 _atom_site_fract_x
 _atom_site_fract_y
 _atom_site_fract_z
 _atom_site_occupancy
  La  La0  1  0.71985700  0.00000000  0.23776400  1
  La  La1  1  0.28014300  0.00000000  0.76223600  1
  La  La2  1  0.21985700  0.50000000  0.23776400  1
  La  La3  1  0.78014300  0.50000000  0.76223600  1
  Mn  Mn4  1  0.95870700  0.50000000  0.31292000  1
  Mn  Mn5  1  0.04129300  0.50000000  0.68708000  1
  Mn  Mn6  1  0.45870700  0.00000000  0.31292000  1
  Mn  Mn7  1  0.54129300  0.00000000  0.68708000  1
  N  N8  1  0.91575000  0.15675200  0.12166100  1
  N  N9  1  0.85831600  0.50000000  0.46515100  1
  N  N10  1  0.08425000  0.84324800  0.87833900  1
  N  N11  1  0.08425000  0.15675200  0.87833900  1
  N  N12  1  0.14168400  0.50000000  0.53484900  1
  N  N13  1  0.91575000  0.84324800  0.12166100  1
  N  N14  1  0.41575000  0.65675200  0.12166100  1
  N  N15  1  0.35831600  0.00000000  0.46515100  1
  N  N16  1  0.58425000  0.34324800  0.87833900  1
  N  N17  1  0.58425000  0.65675200  0.87833900  1
  N  N18  1  0.64168400  0.00000000  0.53484900  1
  N  N19  1  0.41575000  0.34324800  0.12166100  1
