# generated using pymatgen
data_TlAgBr3
_symmetry_space_group_name_H-M   'P 1'
_cell_length_a   7.65530600
_cell_length_b   7.64241800
_cell_length_c   5.40652560
_cell_angle_alpha   90.00000000
_cell_angle_beta   90.16195156
_cell_angle_gamma   90.00000000
_symmetry_Int_Tables_number   1
_chemical_formula_structural   TlAgBr3
_chemical_formula_sum   'Tl2 Ag2 Br6'
_cell_volume   316.30777803
_cell_formula_units_Z   2
loop_
 _symmetry_equiv_pos_site_id
 _symmetry_equiv_pos_as_xyz
  1  'x, y, z'
loop_
 _atom_site_type_symbol
 _atom_site_label
 _atom_site_symmetry_multiplicity
 _atom_site_fract_x
 _atom_site_fract_y
 _atom_site_fract_z
 _atom_site_occupancy
  Tl  Tl0  1  0.99765700  0.00000000  0.99856700  1
  Tl  Tl1  1  0.49765700  0.50000000  0.99856700  1
  Ag  Ag2  1  0.49856700  0.00000000  0.51490500  1
  Ag  Ag3  1  0.99856700  0.50000000  0.51490500  1
  Br  Br4  1  0.74721650  0.25266950  0.51781400  1
  Br  Br5  1  0.50628100  0.00000000  0.01504300  1
  Br  Br6  1  0.74721650  0.74733050  0.51781400  1
  Br  Br7  1  0.24721650  0.75266950  0.51781400  1
  Br  Br8  1  0.00628100  0.50000000  0.01504300  1
  Br  Br9  1  0.24721650  0.24733050  0.51781400  1
