# generated using pymatgen
data_LaCo5P3
_symmetry_space_group_name_H-M   'P 1'
_cell_length_a   3.63140400
_cell_length_b   11.46778200
_cell_length_c   11.43758000
_cell_angle_alpha   90.00000000
_cell_angle_beta   90.00000000
_cell_angle_gamma   90.00000000
_symmetry_Int_Tables_number   1
_chemical_formula_structural   LaCo5P3
_chemical_formula_sum   'La4 Co20 P12'
_cell_volume   476.30829059
_cell_formula_units_Z   4
loop_
 _symmetry_equiv_pos_site_id
 _symmetry_equiv_pos_as_xyz
  1  'x, y, z'
loop_
 _atom_site_type_symbol
 _atom_site_label
 _atom_site_symmetry_multiplicity
 _atom_site_fract_x
 _atom_site_fract_y
 _atom_site_fract_z
 _atom_site_occupancy
  La  La0  1  0.50000000  0.16215500  0.75000000  1
  La  La1  1  0.00000000  0.33784500  0.25000000  1
  La  La2  1  0.00000000  0.66215500  0.75000000  1
  La  La3  1  0.50000000  0.83784500  0.25000000  1
  Co  Co4  1  0.50000000  0.44571900  0.64233800  1
  Co  Co5  1  0.50000000  0.44571900  0.85766200  1
  Co  Co6  1  0.00000000  0.30199000  0.93193000  1
  Co  Co7  1  0.50000000  0.19801000  0.06807000  1
  Co  Co8  1  0.50000000  0.19801000  0.43193000  1
  Co  Co9  1  0.00000000  0.30199000  0.56807000  1
  Co  Co10  1  0.50000000  0.00000000  0.00000000  1
  Co  Co11  1  0.50000000  0.00000000  0.50000000  1
  Co  Co12  1  0.00000000  0.05428100  0.14233800  1
  Co  Co13  1  0.00000000  0.05428100  0.35766200  1
  Co  Co14  1  0.00000000  0.94571900  0.64233800  1
  Co  Co15  1  0.00000000  0.94571900  0.85766200  1
  Co  Co16  1  0.50000000  0.80199000  0.93193000  1
  Co  Co17  1  0.00000000  0.69801000  0.06807000  1
  Co  Co18  1  0.00000000  0.69801000  0.43193000  1
  Co  Co19  1  0.50000000  0.80199000  0.56807000  1
  Co  Co20  1  0.00000000  0.50000000  0.00000000  1
  Co  Co21  1  0.00000000  0.50000000  0.50000000  1
  Co  Co22  1  0.50000000  0.55428100  0.14233800  1
  Co  Co23  1  0.50000000  0.55428100  0.35766200  1
  P  P24  1  0.00000000  0.39123900  0.75000000  1
  P  P25  1  0.50000000  0.10876100  0.25000000  1
  P  P26  1  0.50000000  0.38287600  0.03757000  1
  P  P27  1  0.00000000  0.11712400  0.96243000  1
  P  P28  1  0.00000000  0.11712400  0.53757000  1
  P  P29  1  0.50000000  0.38287600  0.46243000  1
  P  P30  1  0.50000000  0.89123900  0.75000000  1
  P  P31  1  0.00000000  0.60876100  0.25000000  1
  P  P32  1  0.00000000  0.88287600  0.03757000  1
  P  P33  1  0.50000000  0.61712400  0.96243000  1
  P  P34  1  0.50000000  0.61712400  0.53757000  1
  P  P35  1  0.00000000  0.88287600  0.46243000  1
