# generated using pymatgen
data_UNiB4
_symmetry_space_group_name_H-M   'P 1'
_cell_length_a   7.46221200
_cell_length_b   7.46221200
_cell_length_c   8.48287800
_cell_angle_alpha   90.00000000
_cell_angle_beta   90.00000000
_cell_angle_gamma   90.00000000
_symmetry_Int_Tables_number   1
_chemical_formula_structural   UNiB4
_chemical_formula_sum   'U8 Ni8 B32'
_cell_volume   472.36573557
_cell_formula_units_Z   8
loop_
 _symmetry_equiv_pos_site_id
 _symmetry_equiv_pos_as_xyz
  1  'x, y, z'
loop_
 _atom_site_type_symbol
 _atom_site_label
 _atom_site_symmetry_multiplicity
 _atom_site_fract_x
 _atom_site_fract_y
 _atom_site_fract_z
 _atom_site_occupancy
  U  U0  1  0.00000000  0.00000000  0.19542000  1
  U  U1  1  0.00000000  0.00000000  0.80458000  1
  U  U2  1  0.00000000  0.50000000  0.25000000  1
  U  U3  1  0.50000000  0.00000000  0.25000000  1
  U  U4  1  0.50000000  0.50000000  0.69542000  1
  U  U5  1  0.50000000  0.50000000  0.30458000  1
  U  U6  1  0.50000000  0.00000000  0.75000000  1
  U  U7  1  0.00000000  0.50000000  0.75000000  1
  Ni  Ni8  1  0.27251500  0.50000000  0.00000000  1
  Ni  Ni9  1  0.22748500  0.00000000  0.50000000  1
  Ni  Ni10  1  0.00000000  0.22748500  0.50000000  1
  Ni  Ni11  1  0.50000000  0.27251500  0.00000000  1
  Ni  Ni12  1  0.77251500  0.00000000  0.50000000  1
  Ni  Ni13  1  0.72748500  0.50000000  0.00000000  1
  Ni  Ni14  1  0.50000000  0.72748500  0.00000000  1
  Ni  Ni15  1  0.00000000  0.77251500  0.50000000  1
  B  B16  1  0.27503900  0.11060700  0.00000000  1
  B  B17  1  0.22496100  0.38939300  0.50000000  1
  B  B18  1  0.77503900  0.38939300  0.50000000  1
  B  B19  1  0.72496100  0.11060700  0.00000000  1
  B  B20  1  0.38939300  0.22496100  0.50000000  1
  B  B21  1  0.11060700  0.27503900  0.00000000  1
  B  B22  1  0.11060700  0.72496100  0.00000000  1
  B  B23  1  0.38939300  0.77503900  0.50000000  1
  B  B24  1  0.26801950  0.26801950  0.15450450  1
  B  B25  1  0.23198050  0.23198050  0.65450450  1
  B  B26  1  0.76801950  0.23198050  0.34549550  1
  B  B27  1  0.23198050  0.76801950  0.34549550  1
  B  B28  1  0.23198050  0.23198050  0.34549550  1
  B  B29  1  0.26801950  0.26801950  0.84549550  1
  B  B30  1  0.76801950  0.23198050  0.65450450  1
  B  B31  1  0.23198050  0.76801950  0.65450450  1
  B  B32  1  0.77503900  0.61060700  0.50000000  1
  B  B33  1  0.72496100  0.88939300  0.00000000  1
  B  B34  1  0.27503900  0.88939300  0.00000000  1
  B  B35  1  0.22496100  0.61060700  0.50000000  1
  B  B36  1  0.88939300  0.72496100  0.00000000  1
  B  B37  1  0.61060700  0.77503900  0.50000000  1
  B  B38  1  0.61060700  0.22496100  0.50000000  1
  B  B39  1  0.88939300  0.27503900  0.00000000  1
  B  B40  1  0.76801950  0.76801950  0.65450450  1
  B  B41  1  0.73198050  0.73198050  0.15450450  1
  B  B42  1  0.26801950  0.73198050  0.84549550  1
  B  B43  1  0.73198050  0.26801950  0.84549550  1
  B  B44  1  0.73198050  0.73198050  0.84549550  1
  B  B45  1  0.76801950  0.76801950  0.34549550  1
  B  B46  1  0.26801950  0.73198050  0.15450450  1
  B  B47  1  0.73198050  0.26801950  0.15450450  1
