# generated using pymatgen
data_Sc3Co2Si3
_symmetry_space_group_name_H-M   'P 1'
_cell_length_a   3.92607400
_cell_length_b   9.93499400
_cell_length_c   12.80244200
_cell_angle_alpha   90.00000000
_cell_angle_beta   90.00000000
_cell_angle_gamma   90.00000000
_symmetry_Int_Tables_number   1
_chemical_formula_structural   Sc3Co2Si3
_chemical_formula_sum   'Sc12 Co8 Si12'
_cell_volume   499.36592839
_cell_formula_units_Z   4
loop_
 _symmetry_equiv_pos_site_id
 _symmetry_equiv_pos_as_xyz
  1  'x, y, z'
loop_
 _atom_site_type_symbol
 _atom_site_label
 _atom_site_symmetry_multiplicity
 _atom_site_fract_x
 _atom_site_fract_y
 _atom_site_fract_z
 _atom_site_occupancy
  Sc  Sc0  1  0.00000000  0.14297500  0.25000000  1
  Sc  Sc1  1  0.00000000  0.42013600  0.11310700  1
  Sc  Sc2  1  0.00000000  0.42013600  0.38689300  1
  Sc  Sc3  1  0.50000000  0.07986400  0.61310700  1
  Sc  Sc4  1  0.50000000  0.35702500  0.75000000  1
  Sc  Sc5  1  0.50000000  0.07986400  0.88689300  1
  Sc  Sc6  1  0.50000000  0.64297500  0.25000000  1
  Sc  Sc7  1  0.50000000  0.92013600  0.11310700  1
  Sc  Sc8  1  0.50000000  0.92013600  0.38689300  1
  Sc  Sc9  1  0.00000000  0.57986400  0.61310700  1
  Sc  Sc10  1  0.00000000  0.85702500  0.75000000  1
  Sc  Sc11  1  0.00000000  0.57986400  0.88689300  1
  Co  Co12  1  0.50000000  0.21526600  0.08316600  1
  Co  Co13  1  0.00000000  0.28473400  0.58316600  1
  Co  Co14  1  0.50000000  0.21526600  0.41683400  1
  Co  Co15  1  0.00000000  0.28473400  0.91683400  1
  Co  Co16  1  0.00000000  0.71526600  0.08316600  1
  Co  Co17  1  0.50000000  0.78473400  0.58316600  1
  Co  Co18  1  0.00000000  0.71526600  0.41683400  1
  Co  Co19  1  0.50000000  0.78473400  0.91683400  1
  Si  Si20  1  0.00000000  0.16394200  0.75000000  1
  Si  Si21  1  0.50000000  0.38635500  0.95923000  1
  Si  Si22  1  0.50000000  0.38635500  0.54077000  1
  Si  Si23  1  0.00000000  0.11364500  0.04077000  1
  Si  Si24  1  0.50000000  0.33605800  0.25000000  1
  Si  Si25  1  0.00000000  0.11364500  0.45923000  1
  Si  Si26  1  0.50000000  0.66394200  0.75000000  1
  Si  Si27  1  0.00000000  0.88635500  0.95923000  1
  Si  Si28  1  0.00000000  0.88635500  0.54077000  1
  Si  Si29  1  0.50000000  0.61364500  0.04077000  1
  Si  Si30  1  0.00000000  0.83605800  0.25000000  1
  Si  Si31  1  0.50000000  0.61364500  0.45923000  1
