# generated using pymatgen
data_TiV3Fe2(PO4)6
_symmetry_space_group_name_H-M   'P 1'
_cell_length_a   8.67837097
_cell_length_b   8.67837097
_cell_length_c   20.74420381
_cell_angle_alpha   90.00000000
_cell_angle_beta   90.00000000
_cell_angle_gamma   120.00000000
_symmetry_Int_Tables_number   1
_chemical_formula_structural   TiV3Fe2(PO4)6
_chemical_formula_sum   'Ti3 V9 Fe6 P18 O72'
_cell_volume   1353.01877601
_cell_formula_units_Z   3
loop_
 _symmetry_equiv_pos_site_id
 _symmetry_equiv_pos_as_xyz
  1  'x, y, z'
loop_
 _atom_site_type_symbol
 _atom_site_label
 _atom_site_symmetry_multiplicity
 _atom_site_fract_x
 _atom_site_fract_y
 _atom_site_fract_z
 _atom_site_occupancy
  Ti  Ti0  1  0.33333333  0.66666667  0.52303867  1
  Ti  Ti1  1  0.00000000  0.00000000  0.85637200  1
  Ti  Ti2  1  0.66666667  0.33333333  0.18970533  1
  V  V3  1  0.33333333  0.66666667  0.02529067  1
  V  V4  1  0.33333333  0.66666667  0.80989567  1
  V  V5  1  0.33333333  0.66666667  0.30853467  1
  V  V6  1  0.00000000  0.00000000  0.35862400  1
  V  V7  1  0.00000000  0.00000000  0.14322900  1
  V  V8  1  0.00000000  0.00000000  0.64186800  1
  V  V9  1  0.66666667  0.33333333  0.69195733  1
  V  V10  1  0.66666667  0.33333333  0.47656233  1
  V  V11  1  0.66666667  0.33333333  0.97520133  1
  Fe  Fe12  1  0.33333333  0.66666667  0.66675867  1
  Fe  Fe13  1  0.33333333  0.66666667  0.16703567  1
  Fe  Fe14  1  0.00000000  0.00000000  0.00009200  1
  Fe  Fe15  1  0.00000000  0.00000000  0.50036900  1
  Fe  Fe16  1  0.66666667  0.33333333  0.33342533  1
  Fe  Fe17  1  0.66666667  0.33333333  0.83370233  1
  P  P18  1  0.95994867  0.33341633  0.08278133  1
  P  P19  1  0.37346767  0.04005133  0.08278133  1
  P  P20  1  0.66658367  0.62653233  0.08278133  1
  P  P21  1  0.99965833  0.70814467  0.25063767  1
  P  P22  1  0.29185533  0.29151367  0.25063767  1
  P  P23  1  0.70848633  0.00034167  0.25063767  1
  P  P24  1  0.62661533  0.66674967  0.41611467  1
  P  P25  1  0.04013433  0.37338467  0.41611467  1
  P  P26  1  0.33325033  0.95986567  0.41611467  1
  P  P27  1  0.66632500  0.04147800  0.58397100  1
  P  P28  1  0.95852200  0.62484700  0.58397100  1
  P  P29  1  0.37515300  0.33367500  0.58397100  1
  P  P30  1  0.29328200  0.00008300  0.74944800  1
  P  P31  1  0.70680100  0.70671800  0.74944800  1
  P  P32  1  0.99991700  0.29319900  0.74944800  1
  P  P33  1  0.33299167  0.37481133  0.91730433  1
  P  P34  1  0.62518867  0.95818033  0.91730433  1
  P  P35  1  0.04181967  0.66700833  0.91730433  1
  O  O36  1  0.14055267  0.47047233  0.35500033  1
  O  O37  1  0.32991967  0.85944733  0.35500033  1
  O  O38  1  0.52952767  0.67008033  0.35500033  1
  O  O39  1  0.98128900  0.16565100  0.07697200  1
  O  O40  1  0.51814100  0.66010600  0.47681100  1
  O  O41  1  0.14595867  0.49986933  0.09150233  1
  O  O42  1  0.18436200  0.01871100  0.07697200  1
  O  O43  1  0.35391067  0.85404133  0.09150233  1
  O  O44  1  0.99656333  0.80447267  0.18889067  1
  O  O45  1  0.50013067  0.64608933  0.09150233  1
  O  O46  1  0.83172933  0.51637367  0.25609267  1
  O  O47  1  0.19552733  0.19209067  0.18889067  1
  O  O48  1  0.14196500  0.48185900  0.47681100  1
  O  O49  1  0.83434900  0.81563800  0.07697200  1
  O  O50  1  0.16558400  0.68243700  0.24321200  1
  O  O51  1  0.33989400  0.85803500  0.47681100  1
  O  O52  1  0.31756300  0.48314700  0.24321200  1
  O  O53  1  0.48362633  0.31535567  0.25609267  1
  O  O54  1  0.51685300  0.83441600  0.24321200  1
  O  O55  1  0.80790933  0.00343667  0.18889067  1
  O  O56  1  0.68464433  0.16827067  0.25609267  1
  O  O57  1  0.13657667  0.66475633  0.97791533  1
  O  O58  1  0.33524367  0.47182033  0.97791533  1
  O  O59  1  0.52817967  0.86342333  0.97791533  1
  O  O60  1  0.80721933  0.80380567  0.68833367  1
  O  O61  1  0.99658633  0.19278067  0.68833367  1
  O  O62  1  0.19619433  0.00341367  0.68833367  1
  O  O63  1  0.64795567  0.49898433  0.41030533  1
  O  O64  1  0.18480767  0.99343933  0.81014433  1
  O  O65  1  0.81262533  0.83320267  0.42483567  1
  O  O66  1  0.85102867  0.35204433  0.41030533  1
  O  O67  1  0.02057733  0.18737467  0.42483567  1
  O  O68  1  0.66323000  0.13780600  0.52222400  1
  O  O69  1  0.16679733  0.97942267  0.42483567  1
  O  O70  1  0.49839600  0.84970700  0.58942600  1
  O  O71  1  0.86219400  0.52542400  0.52222400  1
  O  O72  1  0.80863167  0.81519233  0.81014433  1
  O  O73  1  0.50101567  0.14897133  0.41030533  1
  O  O74  1  0.83225067  0.01577033  0.57654533  1
  O  O75  1  0.00656067  0.19136833  0.81014433  1
  O  O76  1  0.98422967  0.81648033  0.57654533  1
  O  O77  1  0.15029300  0.64868900  0.58942600  1
  O  O78  1  0.18351967  0.16774933  0.57654533  1
  O  O79  1  0.47457600  0.33677000  0.52222400  1
  O  O80  1  0.35131100  0.50160400  0.58942600  1
  O  O81  1  0.80324333  0.99808967  0.31124867  1
  O  O82  1  0.00191033  0.80515367  0.31124867  1
  O  O83  1  0.19484633  0.19675667  0.31124867  1
  O  O84  1  0.47388600  0.13713900  0.02166700  1
  O  O85  1  0.66325300  0.52611400  0.02166700  1
  O  O86  1  0.86286100  0.33674700  0.02166700  1
  O  O87  1  0.31462233  0.83231767  0.74363867  1
  O  O88  1  0.85147433  0.32677267  0.14347767  1
  O  O89  1  0.47929200  0.16653600  0.75816900  1
  O  O90  1  0.51769533  0.68537767  0.74363867  1
  O  O91  1  0.68724400  0.52070800  0.75816900  1
  O  O92  1  0.32989667  0.47113933  0.85555733  1
  O  O93  1  0.83346400  0.31275600  0.75816900  1
  O  O94  1  0.16506267  0.18304033  0.92275933  1
  O  O95  1  0.52886067  0.85875733  0.85555733  1
  O  O96  1  0.47529833  0.14852567  0.14347767  1
  O  O97  1  0.16768233  0.48230467  0.74363867  1
  O  O98  1  0.49891733  0.34910367  0.90987867  1
  O  O99  1  0.67322733  0.52470167  0.14347767  1
  O  O100  1  0.65089633  0.14981367  0.90987867  1
  O  O101  1  0.81695967  0.98202233  0.92275933  1
  O  O102  1  0.85018633  0.50108267  0.90987867  1
  O  O103  1  0.14124267  0.67010333  0.85555733  1
  O  O104  1  0.01797767  0.83493733  0.92275933  1
  O  O105  1  0.46991000  0.33142300  0.64458200  1
  O  O106  1  0.66857700  0.13848700  0.64458200  1
  O  O107  1  0.86151300  0.53009000  0.64458200  1
