# generated using pymatgen
data_Fe4OF7
_symmetry_space_group_name_H-M   'P 1'
_cell_length_a   6.53727200
_cell_length_b   13.74667600
_cell_length_c   6.68309800
_cell_angle_alpha   90.00000000
_cell_angle_beta   90.00000000
_cell_angle_gamma   90.00000000
_symmetry_Int_Tables_number   1
_chemical_formula_structural   Fe4OF7
_chemical_formula_sum   'Fe16 O4 F28'
_cell_volume   600.58168165
_cell_formula_units_Z   4
loop_
 _symmetry_equiv_pos_site_id
 _symmetry_equiv_pos_as_xyz
  1  'x, y, z'
loop_
 _atom_site_type_symbol
 _atom_site_label
 _atom_site_symmetry_multiplicity
 _atom_site_fract_x
 _atom_site_fract_y
 _atom_site_fract_z
 _atom_site_occupancy
  Fe  Fe0  1  0.00000000  0.87408200  0.00683000  1
  Fe  Fe1  1  0.50000000  0.87515500  0.97466200  1
  Fe  Fe2  1  0.25872550  0.87502350  0.50844000  1
  Fe  Fe3  1  0.74127450  0.87502350  0.50844000  1
  Fe  Fe4  1  0.24127450  0.62497650  0.00844000  1
  Fe  Fe5  1  0.75872550  0.62497650  0.00844000  1
  Fe  Fe6  1  0.50000000  0.62591800  0.50683000  1
  Fe  Fe7  1  0.00000000  0.62484500  0.47466200  1
  Fe  Fe8  1  0.50000000  0.37408200  0.00683000  1
  Fe  Fe9  1  0.00000000  0.37515500  0.97466200  1
  Fe  Fe10  1  0.75872550  0.37502350  0.50844000  1
  Fe  Fe11  1  0.24127450  0.37502350  0.50844000  1
  Fe  Fe12  1  0.74127450  0.12497650  0.00844000  1
  Fe  Fe13  1  0.25872550  0.12497650  0.00844000  1
  Fe  Fe14  1  0.00000000  0.12591800  0.50683000  1
  Fe  Fe15  1  0.50000000  0.12484500  0.47466200  1
  O  O16  1  0.50000000  0.87457000  0.70117800  1
  O  O17  1  0.00000000  0.62543000  0.20117800  1
  O  O18  1  0.00000000  0.37457000  0.70117800  1
  O  O19  1  0.50000000  0.12543000  0.20117800  1
  F  F20  1  0.74053300  0.97140300  0.00148100  1
  F  F21  1  0.25946700  0.97140300  0.00148100  1
  F  F22  1  0.00000000  0.87464400  0.70613200  1
  F  F23  1  0.00000000  0.87543700  0.30751200  1
  F  F24  1  0.50000000  0.62456300  0.80751200  1
  F  F25  1  0.00000000  0.62551900  0.77972900  1
  F  F26  1  0.50000000  0.87448100  0.27972900  1
  F  F27  1  0.26263750  0.77813050  0.00205800  1
  F  F28  1  0.73736250  0.77813050  0.00205800  1
  F  F29  1  0.24053300  0.52859700  0.50148100  1
  F  F30  1  0.75946700  0.52859700  0.50148100  1
  F  F31  1  0.76263750  0.72186950  0.50205800  1
  F  F32  1  0.23736250  0.72186950  0.50205800  1
  F  F33  1  0.50000000  0.62535600  0.20613200  1
  F  F34  1  0.24053300  0.47140300  0.00148100  1
  F  F35  1  0.75946700  0.47140300  0.00148100  1
  F  F36  1  0.50000000  0.37464400  0.70613200  1
  F  F37  1  0.50000000  0.37543700  0.30751200  1
  F  F38  1  0.00000000  0.12456300  0.80751200  1
  F  F39  1  0.50000000  0.12551900  0.77972900  1
  F  F40  1  0.00000000  0.37448100  0.27972900  1
  F  F41  1  0.76263750  0.27813050  0.00205800  1
  F  F42  1  0.23736250  0.27813050  0.00205800  1
  F  F43  1  0.74053300  0.02859700  0.50148100  1
  F  F44  1  0.25946700  0.02859700  0.50148100  1
  F  F45  1  0.26263750  0.22186950  0.50205800  1
  F  F46  1  0.73736250  0.22186950  0.50205800  1
  F  F47  1  0.00000000  0.12535600  0.20613200  1
