# generated using pymatgen
data_Er2C3
_symmetry_space_group_name_H-M   'P 1'
_cell_length_a   8.14305400
_cell_length_b   8.14305400
_cell_length_c   8.14305400
_cell_angle_alpha   90.00000000
_cell_angle_beta   90.00000000
_cell_angle_gamma   90.00000000
_symmetry_Int_Tables_number   1
_chemical_formula_structural   Er2C3
_chemical_formula_sum   'Er16 C24'
_cell_volume   539.96044225
_cell_formula_units_Z   8
loop_
 _symmetry_equiv_pos_site_id
 _symmetry_equiv_pos_as_xyz
  1  'x, y, z'
loop_
 _atom_site_type_symbol
 _atom_site_label
 _atom_site_symmetry_multiplicity
 _atom_site_fract_x
 _atom_site_fract_y
 _atom_site_fract_z
 _atom_site_occupancy
  Er  Er0  1  0.05039350  0.55039350  0.94960650  1
  Er  Er1  1  0.19960650  0.80039350  0.30039350  1
  Er  Er2  1  0.19960650  0.19960650  0.19960650  1
  Er  Er3  1  0.30039350  0.19960650  0.80039350  1
  Er  Er4  1  0.44960650  0.44960650  0.44960650  1
  Er  Er5  1  0.55039350  0.94960650  0.05039350  1
  Er  Er6  1  0.94960650  0.05039350  0.55039350  1
  Er  Er7  1  0.80039350  0.30039350  0.19960650  1
  Er  Er8  1  0.55039350  0.05039350  0.44960650  1
  Er  Er9  1  0.69960650  0.30039350  0.80039350  1
  Er  Er10  1  0.69960650  0.69960650  0.69960650  1
  Er  Er11  1  0.80039350  0.69960650  0.30039350  1
  Er  Er12  1  0.94960650  0.94960650  0.94960650  1
  Er  Er13  1  0.05039350  0.44960650  0.55039350  1
  Er  Er14  1  0.44960650  0.55039350  0.05039350  1
  Er  Er15  1  0.30039350  0.80039350  0.69960650  1
  C  C16  1  0.75000000  0.29260400  0.50000000  1
  C  C17  1  0.75000000  0.45739600  0.50000000  1
  C  C18  1  0.04260400  0.50000000  0.25000000  1
  C  C19  1  0.50000000  0.75000000  0.45739600  1
  C  C20  1  0.45739600  0.50000000  0.75000000  1
  C  C21  1  0.50000000  0.25000000  0.04260400  1
  C  C22  1  0.25000000  0.20739600  0.50000000  1
  C  C23  1  0.50000000  0.75000000  0.29260400  1
  C  C24  1  0.25000000  0.04260400  0.50000000  1
  C  C25  1  0.20739600  0.50000000  0.25000000  1
  C  C26  1  0.29260400  0.50000000  0.75000000  1
  C  C27  1  0.50000000  0.25000000  0.20739600  1
  C  C28  1  0.25000000  0.79260400  0.00000000  1
  C  C29  1  0.25000000  0.95739600  0.00000000  1
  C  C30  1  0.54260400  0.00000000  0.75000000  1
  C  C31  1  0.00000000  0.25000000  0.95739600  1
  C  C32  1  0.95739600  0.00000000  0.25000000  1
  C  C33  1  0.00000000  0.75000000  0.54260400  1
  C  C34  1  0.75000000  0.70739600  0.00000000  1
  C  C35  1  0.00000000  0.25000000  0.79260400  1
  C  C36  1  0.75000000  0.54260400  0.00000000  1
  C  C37  1  0.70739600  0.00000000  0.75000000  1
  C  C38  1  0.79260400  0.00000000  0.25000000  1
  C  C39  1  0.00000000  0.75000000  0.70739600  1
