# generated using pymatgen
data_Dy5Ni2Sb
_symmetry_space_group_name_H-M   'P 1'
_cell_length_a   7.61804400
_cell_length_b   7.61804400
_cell_length_c   13.39487800
_cell_angle_alpha   90.00000000
_cell_angle_beta   90.00000000
_cell_angle_gamma   90.00000000
_symmetry_Int_Tables_number   1
_chemical_formula_structural   Dy5Ni2Sb
_chemical_formula_sum   'Dy20 Ni8 Sb4'
_cell_volume   777.36631158
_cell_formula_units_Z   4
loop_
 _symmetry_equiv_pos_site_id
 _symmetry_equiv_pos_as_xyz
  1  'x, y, z'
loop_
 _atom_site_type_symbol
 _atom_site_label
 _atom_site_symmetry_multiplicity
 _atom_site_fract_x
 _atom_site_fract_y
 _atom_site_fract_z
 _atom_site_occupancy
  Dy  Dy0  1  0.34341700  0.15658300  0.36292500  1
  Dy  Dy1  1  0.15658300  0.65658300  0.36292500  1
  Dy  Dy2  1  0.84341700  0.34341700  0.36292500  1
  Dy  Dy3  1  0.34341700  0.84341700  0.13707500  1
  Dy  Dy4  1  0.65658300  0.84341700  0.36292500  1
  Dy  Dy5  1  0.15658300  0.34341700  0.13707500  1
  Dy  Dy6  1  0.84341700  0.65658300  0.13707500  1
  Dy  Dy7  1  0.65658300  0.15658300  0.13707500  1
  Dy  Dy8  1  0.00000000  0.00000000  0.00000000  1
  Dy  Dy9  1  0.50000000  0.50000000  0.00000000  1
  Dy  Dy10  1  0.84341700  0.65658300  0.86292500  1
  Dy  Dy11  1  0.65658300  0.15658300  0.86292500  1
  Dy  Dy12  1  0.34341700  0.84341700  0.86292500  1
  Dy  Dy13  1  0.84341700  0.34341700  0.63707500  1
  Dy  Dy14  1  0.15658300  0.34341700  0.86292500  1
  Dy  Dy15  1  0.65658300  0.84341700  0.63707500  1
  Dy  Dy16  1  0.34341700  0.15658300  0.63707500  1
  Dy  Dy17  1  0.15658300  0.65658300  0.63707500  1
  Dy  Dy18  1  0.50000000  0.50000000  0.50000000  1
  Dy  Dy19  1  0.00000000  0.00000000  0.50000000  1
  Ni  Ni20  1  0.36856550  0.86856550  0.50000000  1
  Ni  Ni21  1  0.13143450  0.36856550  0.50000000  1
  Ni  Ni22  1  0.63143450  0.13143450  0.50000000  1
  Ni  Ni23  1  0.86856550  0.63143450  0.50000000  1
  Ni  Ni24  1  0.86856550  0.36856550  0.00000000  1
  Ni  Ni25  1  0.63143450  0.86856550  0.00000000  1
  Ni  Ni26  1  0.13143450  0.63143450  0.00000000  1
  Ni  Ni27  1  0.36856550  0.13143450  0.00000000  1
  Sb  Sb28  1  0.50000000  0.50000000  0.25000000  1
  Sb  Sb29  1  0.00000000  0.00000000  0.25000000  1
  Sb  Sb30  1  0.00000000  0.00000000  0.75000000  1
  Sb  Sb31  1  0.50000000  0.50000000  0.75000000  1
