# generated using pymatgen
data_LiNd2Ru
_symmetry_space_group_name_H-M   'P 1'
_cell_length_a   7.14772400
_cell_length_b   7.14772400
_cell_length_c   7.14772400
_cell_angle_alpha   90.00000000
_cell_angle_beta   90.00000000
_cell_angle_gamma   90.00000000
_symmetry_Int_Tables_number   1
_chemical_formula_structural   LiNd2Ru
_chemical_formula_sum   'Li4 Nd8 Ru4'
_cell_volume   365.17692167
_cell_formula_units_Z   4
loop_
 _symmetry_equiv_pos_site_id
 _symmetry_equiv_pos_as_xyz
  1  'x, y, z'
loop_
 _atom_site_type_symbol
 _atom_site_label
 _atom_site_symmetry_multiplicity
 _atom_site_fract_x
 _atom_site_fract_y
 _atom_site_fract_z
 _atom_site_occupancy
  Li  Li0  1  0.50000000  0.00000000  0.00000000  1
  Li  Li1  1  0.50000000  0.50000000  0.50000000  1
  Li  Li2  1  0.00000000  0.00000000  0.50000000  1
  Li  Li3  1  0.00000000  0.50000000  0.00000000  1
  Nd  Nd4  1  0.25000000  0.75000000  0.75000000  1
  Nd  Nd5  1  0.25000000  0.25000000  0.75000000  1
  Nd  Nd6  1  0.25000000  0.25000000  0.25000000  1
  Nd  Nd7  1  0.25000000  0.75000000  0.25000000  1
  Nd  Nd8  1  0.75000000  0.75000000  0.25000000  1
  Nd  Nd9  1  0.75000000  0.25000000  0.25000000  1
  Nd  Nd10  1  0.75000000  0.25000000  0.75000000  1
  Nd  Nd11  1  0.75000000  0.75000000  0.75000000  1
  Ru  Ru12  1  0.00000000  0.00000000  0.00000000  1
  Ru  Ru13  1  0.00000000  0.50000000  0.50000000  1
  Ru  Ru14  1  0.50000000  0.00000000  0.50000000  1
  Ru  Ru15  1  0.50000000  0.50000000  0.00000000  1
