# generated using pymatgen
data_AgHO2
_symmetry_space_group_name_H-M   'P 1'
_cell_length_a   8.47631000
_cell_length_b   7.38833200
_cell_length_c   3.94592971
_cell_angle_alpha   90.00000000
_cell_angle_beta   116.11180328
_cell_angle_gamma   90.00000000
_symmetry_Int_Tables_number   1
_chemical_formula_structural   AgHO2
_chemical_formula_sum   'Ag4 H4 O8'
_cell_volume   221.89545718
_cell_formula_units_Z   4
loop_
 _symmetry_equiv_pos_site_id
 _symmetry_equiv_pos_as_xyz
  1  'x, y, z'
loop_
 _atom_site_type_symbol
 _atom_site_label
 _atom_site_symmetry_multiplicity
 _atom_site_fract_x
 _atom_site_fract_y
 _atom_site_fract_z
 _atom_site_occupancy
  Ag  Ag0  1  0.24299500  0.24990500  0.17659000  1
  Ag  Ag1  1  0.24299500  0.75009500  0.17659000  1
  Ag  Ag2  1  0.74299500  0.74990500  0.17659000  1
  Ag  Ag3  1  0.74299500  0.25009500  0.17659000  1
  H  H4  1  0.52181000  0.50000000  0.76092000  1
  H  H5  1  0.46637000  0.50000000  0.21005000  1
  H  H6  1  0.02181000  0.00000000  0.76092000  1
  H  H7  1  0.96637000  0.00000000  0.21005000  1
  O  O8  1  0.60850500  0.50000000  0.03848000  1
  O  O9  1  0.97346500  0.58762500  0.72855000  1
  O  O10  1  0.37976000  0.50000000  0.32378000  1
  O  O11  1  0.97346500  0.41237500  0.72855000  1
  O  O12  1  0.10850500  0.00000000  0.03848000  1
  O  O13  1  0.47346500  0.08762500  0.72855000  1
  O  O14  1  0.87976000  0.00000000  0.32378000  1
  O  O15  1  0.47346500  0.91237500  0.72855000  1
