# generated using pymatgen
data_Li(Mg4Al3)4
_symmetry_space_group_name_H-M   'P 1'
_cell_length_a   10.52016400
_cell_length_b   10.52016400
_cell_length_c   10.52016400
_cell_angle_alpha   90.00000000
_cell_angle_beta   90.00000000
_cell_angle_gamma   90.00000000
_symmetry_Int_Tables_number   1
_chemical_formula_structural   Li(Mg4Al3)4
_chemical_formula_sum   'Li2 Mg32 Al24'
_cell_volume   1164.30705869
_cell_formula_units_Z   2
loop_
 _symmetry_equiv_pos_site_id
 _symmetry_equiv_pos_as_xyz
  1  'x, y, z'
loop_
 _atom_site_type_symbol
 _atom_site_label
 _atom_site_symmetry_multiplicity
 _atom_site_fract_x
 _atom_site_fract_y
 _atom_site_fract_z
 _atom_site_occupancy
  Li  Li0  1  0.00000000  0.00000000  0.00000000  1
  Li  Li1  1  0.50000000  0.50000000  0.50000000  1
  Mg  Mg2  1  0.95804300  0.35698800  0.35698800  1
  Mg  Mg3  1  0.16919200  0.16919200  0.16919200  1
  Mg  Mg4  1  0.45804300  0.14301200  0.14301200  1
  Mg  Mg5  1  0.66919200  0.33080800  0.33080800  1
  Mg  Mg6  1  0.54195700  0.85698800  0.14301200  1
  Mg  Mg7  1  0.14301200  0.14301200  0.45804300  1
  Mg  Mg8  1  0.14301200  0.54195700  0.85698800  1
  Mg  Mg9  1  0.33080800  0.33080800  0.66919200  1
  Mg  Mg10  1  0.35698800  0.95804300  0.35698800  1
  Mg  Mg11  1  0.85698800  0.14301200  0.54195700  1
  Mg  Mg12  1  0.85698800  0.54195700  0.14301200  1
  Mg  Mg13  1  0.35698800  0.35698800  0.95804300  1
  Mg  Mg14  1  0.33080800  0.66919200  0.33080800  1
  Mg  Mg15  1  0.14301200  0.85698800  0.54195700  1
  Mg  Mg16  1  0.14301200  0.45804300  0.14301200  1
  Mg  Mg17  1  0.54195700  0.14301200  0.85698800  1
  Mg  Mg18  1  0.45804300  0.85698800  0.85698800  1
  Mg  Mg19  1  0.66919200  0.66919200  0.66919200  1
  Mg  Mg20  1  0.95804300  0.64301200  0.64301200  1
  Mg  Mg21  1  0.16919200  0.83080800  0.83080800  1
  Mg  Mg22  1  0.04195700  0.35698800  0.64301200  1
  Mg  Mg23  1  0.64301200  0.64301200  0.95804300  1
  Mg  Mg24  1  0.64301200  0.04195700  0.35698800  1
  Mg  Mg25  1  0.83080800  0.83080800  0.16919200  1
  Mg  Mg26  1  0.85698800  0.45804300  0.85698800  1
  Mg  Mg27  1  0.35698800  0.64301200  0.04195700  1
  Mg  Mg28  1  0.35698800  0.04195700  0.64301200  1
  Mg  Mg29  1  0.85698800  0.85698800  0.45804300  1
  Mg  Mg30  1  0.83080800  0.16919200  0.83080800  1
  Mg  Mg31  1  0.64301200  0.35698800  0.04195700  1
  Mg  Mg32  1  0.64301200  0.95804300  0.64301200  1
  Mg  Mg33  1  0.04195700  0.64301200  0.35698800  1
  Al  Al34  1  0.72315050  0.09071650  0.09071650  1
  Al  Al35  1  0.22315050  0.40928350  0.40928350  1
  Al  Al36  1  0.27684950  0.90928350  0.09071650  1
  Al  Al37  1  0.40928350  0.22315050  0.40928350  1
  Al  Al38  1  0.90928350  0.09071650  0.27684950  1
  Al  Al39  1  0.09071650  0.72315050  0.09071650  1
  Al  Al40  1  0.09071650  0.90928350  0.27684950  1
  Al  Al41  1  0.09071650  0.09071650  0.72315050  1
  Al  Al42  1  0.09071650  0.27684950  0.90928350  1
  Al  Al43  1  0.90928350  0.27684950  0.09071650  1
  Al  Al44  1  0.40928350  0.40928350  0.22315050  1
  Al  Al45  1  0.27684950  0.09071650  0.90928350  1
  Al  Al46  1  0.22315050  0.59071650  0.59071650  1
  Al  Al47  1  0.72315050  0.90928350  0.90928350  1
  Al  Al48  1  0.77684950  0.40928350  0.59071650  1
  Al  Al49  1  0.90928350  0.72315050  0.90928350  1
  Al  Al50  1  0.40928350  0.59071650  0.77684950  1
  Al  Al51  1  0.59071650  0.22315050  0.59071650  1
  Al  Al52  1  0.59071650  0.40928350  0.77684950  1
  Al  Al53  1  0.59071650  0.59071650  0.22315050  1
  Al  Al54  1  0.59071650  0.77684950  0.40928350  1
  Al  Al55  1  0.40928350  0.77684950  0.59071650  1
  Al  Al56  1  0.90928350  0.90928350  0.72315050  1
  Al  Al57  1  0.77684950  0.59071650  0.40928350  1
