# generated using pymatgen
data_Ni2W4C
_symmetry_space_group_name_H-M   'P 1'
_cell_length_a   11.32072000
_cell_length_b   11.32072000
_cell_length_c   11.32072000
_cell_angle_alpha   90.00000000
_cell_angle_beta   90.00000000
_cell_angle_gamma   90.00000000
_symmetry_Int_Tables_number   1
_chemical_formula_structural   Ni2W4C
_chemical_formula_sum   'Ni32 W64 C16'
_cell_volume   1450.84877319
_cell_formula_units_Z   16
loop_
 _symmetry_equiv_pos_site_id
 _symmetry_equiv_pos_as_xyz
  1  'x, y, z'
loop_
 _atom_site_type_symbol
 _atom_site_label
 _atom_site_symmetry_multiplicity
 _atom_site_fract_x
 _atom_site_fract_y
 _atom_site_fract_z
 _atom_site_occupancy
  Ni  Ni0  1  0.33346300  0.33346300  0.33346300  1
  Ni  Ni1  1  0.16653700  0.16653700  0.33346300  1
  Ni  Ni2  1  0.33346300  0.16653700  0.16653700  1
  Ni  Ni3  1  0.16653700  0.33346300  0.16653700  1
  Ni  Ni4  1  0.41653700  0.91653700  0.41653700  1
  Ni  Ni5  1  0.58346300  0.08346300  0.41653700  1
  Ni  Ni6  1  0.08346300  0.91653700  0.08346300  1
  Ni  Ni7  1  0.91653700  0.08346300  0.08346300  1
  Ni  Ni8  1  0.33346300  0.83346300  0.83346300  1
  Ni  Ni9  1  0.16653700  0.66653700  0.83346300  1
  Ni  Ni10  1  0.33346300  0.66653700  0.66653700  1
  Ni  Ni11  1  0.16653700  0.83346300  0.66653700  1
  Ni  Ni12  1  0.41653700  0.41653700  0.91653700  1
  Ni  Ni13  1  0.58346300  0.58346300  0.91653700  1
  Ni  Ni14  1  0.08346300  0.41653700  0.58346300  1
  Ni  Ni15  1  0.91653700  0.58346300  0.58346300  1
  Ni  Ni16  1  0.83346300  0.33346300  0.83346300  1
  Ni  Ni17  1  0.66653700  0.16653700  0.83346300  1
  Ni  Ni18  1  0.83346300  0.16653700  0.66653700  1
  Ni  Ni19  1  0.66653700  0.33346300  0.66653700  1
  Ni  Ni20  1  0.91653700  0.91653700  0.91653700  1
  Ni  Ni21  1  0.08346300  0.08346300  0.91653700  1
  Ni  Ni22  1  0.58346300  0.91653700  0.58346300  1
  Ni  Ni23  1  0.41653700  0.08346300  0.58346300  1
  Ni  Ni24  1  0.83346300  0.83346300  0.33346300  1
  Ni  Ni25  1  0.66653700  0.66653700  0.33346300  1
  Ni  Ni26  1  0.83346300  0.66653700  0.16653700  1
  Ni  Ni27  1  0.66653700  0.83346300  0.16653700  1
  Ni  Ni28  1  0.91653700  0.41653700  0.41653700  1
  Ni  Ni29  1  0.08346300  0.58346300  0.41653700  1
  Ni  Ni30  1  0.58346300  0.41653700  0.08346300  1
  Ni  Ni31  1  0.41653700  0.58346300  0.08346300  1
  W  W32  1  0.05891700  0.75000000  0.25000000  1
  W  W33  1  0.44108300  0.75000000  0.25000000  1
  W  W34  1  0.25000000  0.55891700  0.25000000  1
  W  W35  1  0.25000000  0.75000000  0.05891700  1
  W  W36  1  0.25000000  0.94108300  0.25000000  1
  W  W37  1  0.25000000  0.75000000  0.44108300  1
  W  W38  1  0.50000000  0.69108300  0.50000000  1
  W  W39  1  0.50000000  0.30891700  0.50000000  1
  W  W40  1  0.19108300  0.00000000  0.50000000  1
  W  W41  1  0.50000000  0.00000000  0.19108300  1
  W  W42  1  0.80891700  0.00000000  0.50000000  1
  W  W43  1  0.00000000  0.00000000  0.30891700  1
  W  W44  1  0.12500000  0.12500000  0.12500000  1
  W  W45  1  0.87500000  0.87500000  0.12500000  1
  W  W46  1  0.62500000  0.87500000  0.37500000  1
  W  W47  1  0.37500000  0.12500000  0.37500000  1
  W  W48  1  0.05891700  0.25000000  0.75000000  1
  W  W49  1  0.44108300  0.25000000  0.75000000  1
  W  W50  1  0.25000000  0.05891700  0.75000000  1
  W  W51  1  0.25000000  0.25000000  0.55891700  1
  W  W52  1  0.25000000  0.44108300  0.75000000  1
  W  W53  1  0.25000000  0.25000000  0.94108300  1
  W  W54  1  0.50000000  0.19108300  0.00000000  1
  W  W55  1  0.50000000  0.80891700  0.00000000  1
  W  W56  1  0.19108300  0.50000000  0.00000000  1
  W  W57  1  0.50000000  0.50000000  0.69108300  1
  W  W58  1  0.80891700  0.50000000  0.00000000  1
  W  W59  1  0.00000000  0.50000000  0.80891700  1
  W  W60  1  0.12500000  0.62500000  0.62500000  1
  W  W61  1  0.87500000  0.37500000  0.62500000  1
  W  W62  1  0.62500000  0.37500000  0.87500000  1
  W  W63  1  0.37500000  0.62500000  0.87500000  1
  W  W64  1  0.55891700  0.75000000  0.75000000  1
  W  W65  1  0.94108300  0.75000000  0.75000000  1
  W  W66  1  0.75000000  0.55891700  0.75000000  1
  W  W67  1  0.75000000  0.75000000  0.55891700  1
  W  W68  1  0.75000000  0.94108300  0.75000000  1
  W  W69  1  0.75000000  0.75000000  0.94108300  1
  W  W70  1  0.00000000  0.69108300  0.00000000  1
  W  W71  1  0.00000000  0.30891700  0.00000000  1
  W  W72  1  0.69108300  0.00000000  0.00000000  1
  W  W73  1  0.00000000  0.00000000  0.69108300  1
  W  W74  1  0.30891700  0.00000000  0.00000000  1
  W  W75  1  0.50000000  0.00000000  0.80891700  1
  W  W76  1  0.62500000  0.12500000  0.62500000  1
  W  W77  1  0.37500000  0.87500000  0.62500000  1
  W  W78  1  0.12500000  0.87500000  0.87500000  1
  W  W79  1  0.87500000  0.12500000  0.87500000  1
  W  W80  1  0.55891700  0.25000000  0.25000000  1
  W  W81  1  0.94108300  0.25000000  0.25000000  1
  W  W82  1  0.75000000  0.05891700  0.25000000  1
  W  W83  1  0.75000000  0.25000000  0.05891700  1
  W  W84  1  0.75000000  0.44108300  0.25000000  1
  W  W85  1  0.75000000  0.25000000  0.44108300  1
  W  W86  1  0.00000000  0.19108300  0.50000000  1
  W  W87  1  0.00000000  0.80891700  0.50000000  1
  W  W88  1  0.69108300  0.50000000  0.50000000  1
  W  W89  1  0.00000000  0.50000000  0.19108300  1
  W  W90  1  0.30891700  0.50000000  0.50000000  1
  W  W91  1  0.50000000  0.50000000  0.30891700  1
  W  W92  1  0.62500000  0.62500000  0.12500000  1
  W  W93  1  0.37500000  0.37500000  0.12500000  1
  W  W94  1  0.12500000  0.37500000  0.37500000  1
  W  W95  1  0.87500000  0.62500000  0.37500000  1
  C  C96  1  0.12500000  0.62500000  0.12500000  1
  C  C97  1  0.37500000  0.87500000  0.12500000  1
  C  C98  1  0.12500000  0.87500000  0.37500000  1
  C  C99  1  0.37500000  0.62500000  0.37500000  1
  C  C100  1  0.12500000  0.12500000  0.62500000  1
  C  C101  1  0.37500000  0.37500000  0.62500000  1
  C  C102  1  0.12500000  0.37500000  0.87500000  1
  C  C103  1  0.37500000  0.12500000  0.87500000  1
  C  C104  1  0.62500000  0.62500000  0.62500000  1
  C  C105  1  0.87500000  0.87500000  0.62500000  1
  C  C106  1  0.62500000  0.87500000  0.87500000  1
  C  C107  1  0.87500000  0.62500000  0.87500000  1
  C  C108  1  0.62500000  0.12500000  0.12500000  1
  C  C109  1  0.87500000  0.37500000  0.12500000  1
  C  C110  1  0.62500000  0.37500000  0.37500000  1
  C  C111  1  0.87500000  0.12500000  0.37500000  1
