# generated using pymatgen
data_Tm2C3
_symmetry_space_group_name_H-M   'P 1'
_cell_length_a   8.09031800
_cell_length_b   8.09031800
_cell_length_c   8.09031800
_cell_angle_alpha   90.00000000
_cell_angle_beta   90.00000000
_cell_angle_gamma   90.00000000
_symmetry_Int_Tables_number   1
_chemical_formula_structural   Tm2C3
_chemical_formula_sum   'Tm16 C24'
_cell_volume   529.53756894
_cell_formula_units_Z   8
loop_
 _symmetry_equiv_pos_site_id
 _symmetry_equiv_pos_as_xyz
  1  'x, y, z'
loop_
 _atom_site_type_symbol
 _atom_site_label
 _atom_site_symmetry_multiplicity
 _atom_site_fract_x
 _atom_site_fract_y
 _atom_site_fract_z
 _atom_site_occupancy
  Tm  Tm0  1  0.30031800  0.30031800  0.30031800  1
  Tm  Tm1  1  0.94968200  0.44968200  0.05031800  1
  Tm  Tm2  1  0.44968200  0.05031800  0.94968200  1
  Tm  Tm3  1  0.05031800  0.94968200  0.44968200  1
  Tm  Tm4  1  0.69968200  0.80031800  0.19968200  1
  Tm  Tm5  1  0.80031800  0.19968200  0.69968200  1
  Tm  Tm6  1  0.19968200  0.69968200  0.80031800  1
  Tm  Tm7  1  0.05031800  0.05031800  0.05031800  1
  Tm  Tm8  1  0.80031800  0.80031800  0.80031800  1
  Tm  Tm9  1  0.44968200  0.94968200  0.55031800  1
  Tm  Tm10  1  0.94968200  0.55031800  0.44968200  1
  Tm  Tm11  1  0.55031800  0.44968200  0.94968200  1
  Tm  Tm12  1  0.19968200  0.30031800  0.69968200  1
  Tm  Tm13  1  0.30031800  0.69968200  0.19968200  1
  Tm  Tm14  1  0.69968200  0.19968200  0.30031800  1
  Tm  Tm15  1  0.55031800  0.55031800  0.55031800  1
  C  C16  1  0.00000000  0.75000000  0.04198000  1
  C  C17  1  0.00000000  0.75000000  0.20802000  1
  C  C18  1  0.29198000  0.00000000  0.25000000  1
  C  C19  1  0.25000000  0.29198000  0.00000000  1
  C  C20  1  0.20802000  0.00000000  0.75000000  1
  C  C21  1  0.75000000  0.20802000  0.00000000  1
  C  C22  1  0.00000000  0.25000000  0.45802000  1
  C  C23  1  0.25000000  0.45802000  0.00000000  1
  C  C24  1  0.00000000  0.25000000  0.29198000  1
  C  C25  1  0.45802000  0.00000000  0.25000000  1
  C  C26  1  0.04198000  0.00000000  0.75000000  1
  C  C27  1  0.75000000  0.04198000  0.00000000  1
  C  C28  1  0.50000000  0.25000000  0.54198000  1
  C  C29  1  0.50000000  0.25000000  0.70802000  1
  C  C30  1  0.79198000  0.50000000  0.75000000  1
  C  C31  1  0.75000000  0.79198000  0.50000000  1
  C  C32  1  0.70802000  0.50000000  0.25000000  1
  C  C33  1  0.25000000  0.70802000  0.50000000  1
  C  C34  1  0.50000000  0.75000000  0.95802000  1
  C  C35  1  0.75000000  0.95802000  0.50000000  1
  C  C36  1  0.50000000  0.75000000  0.79198000  1
  C  C37  1  0.95802000  0.50000000  0.75000000  1
  C  C38  1  0.54198000  0.50000000  0.25000000  1
  C  C39  1  0.25000000  0.54198000  0.50000000  1
