# generated using pymatgen
data_Li7ZrO6
_symmetry_space_group_name_H-M   'P 1'
_cell_length_a   5.67037027
_cell_length_b   5.67037027
_cell_length_c   15.22345405
_cell_angle_alpha   90.00000000
_cell_angle_beta   90.00000000
_cell_angle_gamma   120.00000000
_symmetry_Int_Tables_number   1
_chemical_formula_structural   Li7ZrO6
_chemical_formula_sum   'Li21 Zr3 O18'
_cell_volume   423.90317635
_cell_formula_units_Z   3
loop_
 _symmetry_equiv_pos_site_id
 _symmetry_equiv_pos_as_xyz
  1  'x, y, z'
loop_
 _atom_site_type_symbol
 _atom_site_label
 _atom_site_symmetry_multiplicity
 _atom_site_fract_x
 _atom_site_fract_y
 _atom_site_fract_z
 _atom_site_occupancy
  Li  Li0  1  0.65321600  0.60827300  0.11695900  1
  Li  Li1  1  0.65811700  0.94630000  0.21694900  1
  Li  Li2  1  0.28818300  0.34188300  0.21694900  1
  Li  Li3  1  0.33333333  0.66666667  0.01338067  1
  Li  Li4  1  0.39172700  0.04494300  0.11695900  1
  Li  Li5  1  0.95505700  0.34678400  0.11695900  1
  Li  Li6  1  0.05370000  0.71181700  0.21694900  1
  Li  Li7  1  0.31988267  0.94160633  0.45029233  1
  Li  Li8  1  0.32478367  0.27963333  0.55028233  1
  Li  Li9  1  0.95484967  0.67521633  0.55028233  1
  Li  Li10  1  0.00000000  0.00000000  0.34671400  1
  Li  Li11  1  0.05839367  0.37827633  0.45029233  1
  Li  Li12  1  0.62172367  0.68011733  0.45029233  1
  Li  Li13  1  0.72036667  0.04515033  0.55028233  1
  Li  Li14  1  0.98654933  0.27493967  0.78362567  1
  Li  Li15  1  0.99145033  0.61296667  0.88361567  1
  Li  Li16  1  0.62151633  0.00854967  0.88361567  1
  Li  Li17  1  0.66666667  0.33333333  0.68004733  1
  Li  Li18  1  0.72506033  0.71160967  0.78362567  1
  Li  Li19  1  0.28839033  0.01345067  0.78362567  1
  Li  Li20  1  0.38703333  0.37848367  0.88361567  1
  Zr  Zr21  1  0.66666667  0.33333333  0.33313833  1
  Zr  Zr22  1  0.33333333  0.66666667  0.66647167  1
  Zr  Zr23  1  0.00000000  0.00000000  0.99980500  1
  O  O24  1  0.68126667  0.63585633  0.24858633  1
  O  O25  1  0.67827800  0.96461700  0.08363100  1
  O  O26  1  0.28633900  0.32172200  0.08363100  1
  O  O27  1  0.36414367  0.04541033  0.24858633  1
  O  O28  1  0.95458967  0.31873333  0.24858633  1
  O  O29  1  0.03538300  0.71366100  0.08363100  1
  O  O30  1  0.34793333  0.96918967  0.58191967  1
  O  O31  1  0.34494467  0.29795033  0.41696433  1
  O  O32  1  0.95300567  0.65505533  0.41696433  1
  O  O33  1  0.03081033  0.37874367  0.58191967  1
  O  O34  1  0.62125633  0.65206667  0.58191967  1
  O  O35  1  0.70204967  0.04699433  0.41696433  1
  O  O36  1  0.01460000  0.30252300  0.91525300  1
  O  O37  1  0.01161133  0.63128367  0.75029767  1
  O  O38  1  0.61967233  0.98838867  0.75029767  1
  O  O39  1  0.69747700  0.71207700  0.91525300  1
  O  O40  1  0.28792300  0.98540000  0.91525300  1
  O  O41  1  0.36871633  0.38032767  0.75029767  1
