# generated using pymatgen
data_La11In9Ni4
_symmetry_space_group_name_H-M   'P 1'
_cell_length_a   15.11986200
_cell_length_b   22.62755200
_cell_length_c   3.86010500
_cell_angle_alpha   90.00000000
_cell_angle_beta   90.00000000
_cell_angle_gamma   90.00000000
_symmetry_Int_Tables_number   1
_chemical_formula_structural   La11In9Ni4
_chemical_formula_sum   'La22 In18 Ni8'
_cell_volume   1320.64021282
_cell_formula_units_Z   2
loop_
 _symmetry_equiv_pos_site_id
 _symmetry_equiv_pos_as_xyz
  1  'x, y, z'
loop_
 _atom_site_type_symbol
 _atom_site_label
 _atom_site_symmetry_multiplicity
 _atom_site_fract_x
 _atom_site_fract_y
 _atom_site_fract_z
 _atom_site_occupancy
  La  La0  1  0.31284200  0.00000000  0.00000000  1
  La  La1  1  0.68715800  0.00000000  0.00000000  1
  La  La2  1  0.00000000  0.00000000  0.00000000  1
  La  La3  1  0.24835100  0.16934200  0.00000000  1
  La  La4  1  0.75164900  0.83065800  0.00000000  1
  La  La5  1  0.24835100  0.83065800  0.00000000  1
  La  La6  1  0.75164900  0.16934200  0.00000000  1
  La  La7  1  0.50000000  0.66202900  0.00000000  1
  La  La8  1  0.50000000  0.33797100  0.00000000  1
  La  La9  1  0.50000000  0.87557600  0.00000000  1
  La  La10  1  0.50000000  0.12442400  0.00000000  1
  La  La11  1  0.81284200  0.50000000  0.00000000  1
  La  La12  1  0.18715800  0.50000000  0.00000000  1
  La  La13  1  0.50000000  0.50000000  0.00000000  1
  La  La14  1  0.74835100  0.66934200  0.00000000  1
  La  La15  1  0.25164900  0.33065800  0.00000000  1
  La  La16  1  0.74835100  0.33065800  0.00000000  1
  La  La17  1  0.25164900  0.66934200  0.00000000  1
  La  La18  1  0.00000000  0.16202900  0.00000000  1
  La  La19  1  0.00000000  0.83797100  0.00000000  1
  La  La20  1  0.00000000  0.37557600  0.00000000  1
  La  La21  1  0.00000000  0.62442400  0.00000000  1
  In  In22  1  0.60120250  0.76595350  0.50000000  1
  In  In23  1  0.39879750  0.23404650  0.50000000  1
  In  In24  1  0.60120250  0.23404650  0.50000000  1
  In  In25  1  0.39879750  0.76595350  0.50000000  1
  In  In26  1  0.15129150  0.07035150  0.50000000  1
  In  In27  1  0.84870850  0.92964850  0.50000000  1
  In  In28  1  0.15129150  0.92964850  0.50000000  1
  In  In29  1  0.84870850  0.07035150  0.50000000  1
  In  In30  1  0.50000000  0.00000000  0.50000000  1
  In  In31  1  0.10120250  0.26595350  0.50000000  1
  In  In32  1  0.89879750  0.73404650  0.50000000  1
  In  In33  1  0.10120250  0.73404650  0.50000000  1
  In  In34  1  0.89879750  0.26595350  0.50000000  1
  In  In35  1  0.65129150  0.57035150  0.50000000  1
  In  In36  1  0.34870850  0.42964850  0.50000000  1
  In  In37  1  0.65129150  0.42964850  0.50000000  1
  In  In38  1  0.34870850  0.57035150  0.50000000  1
  In  In39  1  0.00000000  0.50000000  0.50000000  1
  Ni  Ni40  1  0.34446550  0.10213250  0.50000000  1
  Ni  Ni41  1  0.65553450  0.89786750  0.50000000  1
  Ni  Ni42  1  0.34446550  0.89786750  0.50000000  1
  Ni  Ni43  1  0.65553450  0.10213250  0.50000000  1
  Ni  Ni44  1  0.84446550  0.60213250  0.50000000  1
  Ni  Ni45  1  0.15553450  0.39786750  0.50000000  1
  Ni  Ni46  1  0.84446550  0.39786750  0.50000000  1
  Ni  Ni47  1  0.15553450  0.60213250  0.50000000  1
