# generated using pymatgen
data_La(PdO2)2
_symmetry_space_group_name_H-M   'P 1'
_cell_length_a   5.99836400
_cell_length_b   5.99836400
_cell_length_c   10.39310200
_cell_angle_alpha   90.00000000
_cell_angle_beta   90.00000000
_cell_angle_gamma   90.00000000
_symmetry_Int_Tables_number   1
_chemical_formula_structural   La(PdO2)2
_chemical_formula_sum   'La4 Pd8 O16'
_cell_volume   373.94766244
_cell_formula_units_Z   4
loop_
 _symmetry_equiv_pos_site_id
 _symmetry_equiv_pos_as_xyz
  1  'x, y, z'
loop_
 _atom_site_type_symbol
 _atom_site_label
 _atom_site_symmetry_multiplicity
 _atom_site_fract_x
 _atom_site_fract_y
 _atom_site_fract_z
 _atom_site_occupancy
  La  La0  1  0.00000000  0.50000000  0.25000000  1
  La  La1  1  0.00000000  0.00000000  0.00000000  1
  La  La2  1  0.50000000  0.00000000  0.75000000  1
  La  La3  1  0.50000000  0.50000000  0.50000000  1
  Pd  Pd4  1  0.25000000  0.00000000  0.37500000  1
  Pd  Pd5  1  0.50000000  0.75000000  0.12500000  1
  Pd  Pd6  1  0.50000000  0.25000000  0.12500000  1
  Pd  Pd7  1  0.75000000  0.00000000  0.37500000  1
  Pd  Pd8  1  0.75000000  0.50000000  0.87500000  1
  Pd  Pd9  1  0.00000000  0.25000000  0.62500000  1
  Pd  Pd10  1  0.00000000  0.75000000  0.62500000  1
  Pd  Pd11  1  0.25000000  0.50000000  0.87500000  1
  O  O12  1  0.65239750  0.29558950  0.29869450  1
  O  O13  1  0.79558950  0.34760250  0.04869450  1
  O  O14  1  0.20441050  0.65239750  0.04869450  1
  O  O15  1  0.34760250  0.70441050  0.29869450  1
  O  O16  1  0.84760250  0.70441050  0.45130550  1
  O  O17  1  0.20441050  0.15239750  0.20130550  1
  O  O18  1  0.15239750  0.29558950  0.45130550  1
  O  O19  1  0.79558950  0.84760250  0.20130550  1
  O  O20  1  0.15239750  0.79558950  0.79869450  1
  O  O21  1  0.29558950  0.84760250  0.54869450  1
  O  O22  1  0.70441050  0.15239750  0.54869450  1
  O  O23  1  0.84760250  0.20441050  0.79869450  1
  O  O24  1  0.34760250  0.20441050  0.95130550  1
  O  O25  1  0.70441050  0.65239750  0.70130550  1
  O  O26  1  0.65239750  0.79558950  0.95130550  1
  O  O27  1  0.29558950  0.34760250  0.70130550  1
