# generated using pymatgen
data_CsNaF3
_symmetry_space_group_name_H-M   'P 1'
_cell_length_a   6.63087200
_cell_length_b   6.35853400
_cell_length_c   4.56773658
_cell_angle_alpha   90.00000000
_cell_angle_beta   94.91932525
_cell_angle_gamma   90.00000000
_symmetry_Int_Tables_number   1
_chemical_formula_structural   CsNaF3
_chemical_formula_sum   'Cs2 Na2 F6'
_cell_volume   191.87835418
_cell_formula_units_Z   2
loop_
 _symmetry_equiv_pos_site_id
 _symmetry_equiv_pos_as_xyz
  1  'x, y, z'
loop_
 _atom_site_type_symbol
 _atom_site_label
 _atom_site_symmetry_multiplicity
 _atom_site_fract_x
 _atom_site_fract_y
 _atom_site_fract_z
 _atom_site_occupancy
  Cs  Cs0  1  0.49767300  0.50000000  0.00945800  1
  Cs  Cs1  1  0.99767300  0.00000000  0.00945800  1
  Na  Na2  1  0.99747200  0.50000000  0.51602700  1
  Na  Na3  1  0.49747200  0.00000000  0.51602700  1
  F  F4  1  0.24702900  0.75227400  0.51278800  1
  F  F5  1  0.00980000  0.50000000  0.01933600  1
  F  F6  1  0.24702900  0.24772600  0.51278800  1
  F  F7  1  0.74702900  0.25227400  0.51278800  1
  F  F8  1  0.50980000  0.00000000  0.01933600  1
  F  F9  1  0.74702900  0.74772600  0.51278800  1
