# generated using pymatgen
data_Yb2Cr2C3
_symmetry_space_group_name_H-M   'P 1'
_cell_length_a   10.19359000
_cell_length_b   3.55236200
_cell_length_c   5.54121561
_cell_angle_alpha   90.00000000
_cell_angle_beta   105.57354208
_cell_angle_gamma   90.00000000
_symmetry_Int_Tables_number   1
_chemical_formula_structural   Yb2Cr2C3
_chemical_formula_sum   'Yb4 Cr4 C6'
_cell_volume   193.28803285
_cell_formula_units_Z   2
loop_
 _symmetry_equiv_pos_site_id
 _symmetry_equiv_pos_as_xyz
  1  'x, y, z'
loop_
 _atom_site_type_symbol
 _atom_site_label
 _atom_site_symmetry_multiplicity
 _atom_site_fract_x
 _atom_site_fract_y
 _atom_site_fract_z
 _atom_site_occupancy
  Yb  Yb0  1  0.59921400  0.00000000  0.81502100  1
  Yb  Yb1  1  0.90078600  0.50000000  0.18497900  1
  Yb  Yb2  1  0.09921400  0.50000000  0.81502100  1
  Yb  Yb3  1  0.40078600  0.00000000  0.18497900  1
  Cr  Cr4  1  0.84175100  0.00000000  0.59744200  1
  Cr  Cr5  1  0.65824900  0.50000000  0.40255800  1
  Cr  Cr6  1  0.34175100  0.50000000  0.59744200  1
  Cr  Cr7  1  0.15824900  0.00000000  0.40255800  1
  C  C8  1  0.00000000  0.00000000  0.50000000  1
  C  C9  1  0.81088800  0.50000000  0.70670100  1
  C  C10  1  0.68911200  0.00000000  0.29329900  1
  C  C11  1  0.50000000  0.50000000  0.50000000  1
  C  C12  1  0.31088800  0.00000000  0.70670100  1
  C  C13  1  0.18911200  0.50000000  0.29329900  1
