# generated using pymatgen
data_Zn3In
_symmetry_space_group_name_H-M   'P 1'
_cell_length_a   5.95105400
_cell_length_b   10.68984600
_cell_length_c   4.68006800
_cell_angle_alpha   90.00000000
_cell_angle_beta   90.00000000
_cell_angle_gamma   90.00000000
_symmetry_Int_Tables_number   1
_chemical_formula_structural   Zn3In
_chemical_formula_sum   'Zn12 In4'
_cell_volume   297.72650761
_cell_formula_units_Z   4
loop_
 _symmetry_equiv_pos_site_id
 _symmetry_equiv_pos_as_xyz
  1  'x, y, z'
loop_
 _atom_site_type_symbol
 _atom_site_label
 _atom_site_symmetry_multiplicity
 _atom_site_fract_x
 _atom_site_fract_y
 _atom_site_fract_z
 _atom_site_occupancy
  Zn  Zn0  1  0.00000000  0.15296100  0.75000000  1
  Zn  Zn1  1  0.73148600  0.42306100  0.75000000  1
  Zn  Zn2  1  0.26851400  0.42306100  0.75000000  1
  Zn  Zn3  1  0.50000000  0.34703900  0.25000000  1
  Zn  Zn4  1  0.76851400  0.07693900  0.25000000  1
  Zn  Zn5  1  0.23148600  0.07693900  0.25000000  1
  Zn  Zn6  1  0.50000000  0.65296100  0.75000000  1
  Zn  Zn7  1  0.23148600  0.92306100  0.75000000  1
  Zn  Zn8  1  0.76851400  0.92306100  0.75000000  1
  Zn  Zn9  1  0.00000000  0.84703900  0.25000000  1
  Zn  Zn10  1  0.26851400  0.57693900  0.25000000  1
  Zn  Zn11  1  0.73148600  0.57693900  0.25000000  1
  In  In12  1  0.00000000  0.33338400  0.25000000  1
  In  In13  1  0.50000000  0.16661600  0.75000000  1
  In  In14  1  0.50000000  0.83338400  0.25000000  1
  In  In15  1  0.00000000  0.66661600  0.75000000  1
