# generated using pymatgen
data_H2O
_symmetry_space_group_name_H-M   'P 1'
_cell_length_a   5.81734400
_cell_length_b   7.98301000
_cell_length_c   8.56392200
_cell_angle_alpha   90.00000000
_cell_angle_beta   90.00000000
_cell_angle_gamma   90.00000000
_symmetry_Int_Tables_number   1
_chemical_formula_structural   H2O
_chemical_formula_sum   'H32 O16'
_cell_volume   397.70781253
_cell_formula_units_Z   16
loop_
 _symmetry_equiv_pos_site_id
 _symmetry_equiv_pos_as_xyz
  1  'x, y, z'
loop_
 _atom_site_type_symbol
 _atom_site_label
 _atom_site_symmetry_multiplicity
 _atom_site_fract_x
 _atom_site_fract_y
 _atom_site_fract_z
 _atom_site_occupancy
  H  H0  1  0.50000000  0.75000000  0.35126450  1
  H  H1  1  0.50000000  0.75000000  0.64873550  1
  H  H2  1  0.50000000  0.25000000  0.64873550  1
  H  H3  1  0.50000000  0.25000000  0.35126450  1
  H  H4  1  0.25000250  0.75000000  0.50000000  1
  H  H5  1  0.74999750  0.75000000  0.50000000  1
  H  H6  1  0.74999750  0.25000000  0.50000000  1
  H  H7  1  0.25000250  0.25000000  0.50000000  1
  H  H8  1  0.00000000  0.00000000  0.50000000  1
  H  H9  1  0.50000000  0.00000000  0.00000000  1
  H  H10  1  0.50000000  0.75000000  0.50000000  1
  H  H11  1  0.50000000  0.25000000  0.50000000  1
  H  H12  1  0.25000000  0.75000000  0.25000000  1
  H  H13  1  0.25000000  0.25000000  0.25000000  1
  H  H14  1  0.75000000  0.25000000  0.25000000  1
  H  H15  1  0.75000000  0.75000000  0.25000000  1
  H  H16  1  0.00000000  0.25000000  0.85126450  1
  H  H17  1  0.00000000  0.25000000  0.14873550  1
  H  H18  1  0.00000000  0.75000000  0.14873550  1
  H  H19  1  0.00000000  0.75000000  0.85126450  1
  H  H20  1  0.75000250  0.25000000  0.00000000  1
  H  H21  1  0.24999750  0.25000000  0.00000000  1
  H  H22  1  0.24999750  0.75000000  0.00000000  1
  H  H23  1  0.75000250  0.75000000  0.00000000  1
  H  H24  1  0.50000000  0.50000000  0.00000000  1
  H  H25  1  0.00000000  0.50000000  0.50000000  1
  H  H26  1  0.00000000  0.25000000  0.00000000  1
  H  H27  1  0.00000000  0.75000000  0.00000000  1
  H  H28  1  0.75000000  0.25000000  0.75000000  1
  H  H29  1  0.75000000  0.75000000  0.75000000  1
  H  H30  1  0.25000000  0.75000000  0.75000000  1
  H  H31  1  0.25000000  0.25000000  0.75000000  1
  O  O32  1  0.30826050  0.80935700  0.37369950  1
  O  O33  1  0.69173950  0.80935700  0.62630050  1
  O  O34  1  0.30826050  0.69064300  0.62630050  1
  O  O35  1  0.69173950  0.69064300  0.37369950  1
  O  O36  1  0.69173950  0.19064300  0.62630050  1
  O  O37  1  0.30826050  0.19064300  0.37369950  1
  O  O38  1  0.69173950  0.30935700  0.37369950  1
  O  O39  1  0.30826050  0.30935700  0.62630050  1
  O  O40  1  0.80826050  0.30935700  0.87369950  1
  O  O41  1  0.19173950  0.30935700  0.12630050  1
  O  O42  1  0.80826050  0.19064300  0.12630050  1
  O  O43  1  0.19173950  0.19064300  0.87369950  1
  O  O44  1  0.19173950  0.69064300  0.12630050  1
  O  O45  1  0.80826050  0.69064300  0.87369950  1
  O  O46  1  0.19173950  0.80935700  0.87369950  1
  O  O47  1  0.80826050  0.80935700  0.12630050  1
