# generated using pymatgen
data_Pu3Sc
_symmetry_space_group_name_H-M   'P 1'
_cell_length_a   7.09209400
_cell_length_b   7.09209400
_cell_length_c   7.09209400
_cell_angle_alpha   90.00000000
_cell_angle_beta   90.00000000
_cell_angle_gamma   90.00000000
_symmetry_Int_Tables_number   1
_chemical_formula_structural   Pu3Sc
_chemical_formula_sum   'Pu12 Sc4'
_cell_volume   356.71670648
_cell_formula_units_Z   4
loop_
 _symmetry_equiv_pos_site_id
 _symmetry_equiv_pos_as_xyz
  1  'x, y, z'
loop_
 _atom_site_type_symbol
 _atom_site_label
 _atom_site_symmetry_multiplicity
 _atom_site_fract_x
 _atom_site_fract_y
 _atom_site_fract_z
 _atom_site_occupancy
  Pu  Pu0  1  0.25000000  0.75000000  0.75000000  1
  Pu  Pu1  1  0.25000000  0.25000000  0.75000000  1
  Pu  Pu2  1  0.50000000  0.00000000  0.00000000  1
  Pu  Pu3  1  0.25000000  0.25000000  0.25000000  1
  Pu  Pu4  1  0.25000000  0.75000000  0.25000000  1
  Pu  Pu5  1  0.50000000  0.50000000  0.50000000  1
  Pu  Pu6  1  0.75000000  0.75000000  0.25000000  1
  Pu  Pu7  1  0.75000000  0.25000000  0.25000000  1
  Pu  Pu8  1  0.00000000  0.00000000  0.50000000  1
  Pu  Pu9  1  0.75000000  0.25000000  0.75000000  1
  Pu  Pu10  1  0.75000000  0.75000000  0.75000000  1
  Pu  Pu11  1  0.00000000  0.50000000  0.00000000  1
  Sc  Sc12  1  0.00000000  0.00000000  0.00000000  1
  Sc  Sc13  1  0.00000000  0.50000000  0.50000000  1
  Sc  Sc14  1  0.50000000  0.00000000  0.50000000  1
  Sc  Sc15  1  0.50000000  0.50000000  0.00000000  1
