# generated using pymatgen
data_TmGe
_symmetry_space_group_name_H-M   'P 1'
_cell_length_a   4.23294400
_cell_length_b   10.60103600
_cell_length_c   3.91267200
_cell_angle_alpha   90.00000000
_cell_angle_beta   90.00000000
_cell_angle_gamma   90.00000000
_symmetry_Int_Tables_number   1
_chemical_formula_structural   TmGe
_chemical_formula_sum   'Tm4 Ge4'
_cell_volume   175.57564590
_cell_formula_units_Z   4
loop_
 _symmetry_equiv_pos_site_id
 _symmetry_equiv_pos_as_xyz
  1  'x, y, z'
loop_
 _atom_site_type_symbol
 _atom_site_label
 _atom_site_symmetry_multiplicity
 _atom_site_fract_x
 _atom_site_fract_y
 _atom_site_fract_z
 _atom_site_occupancy
  Tm  Tm0  1  0.00000000  0.13806900  0.75000000  1
  Tm  Tm1  1  0.50000000  0.36193100  0.25000000  1
  Tm  Tm2  1  0.50000000  0.63806900  0.75000000  1
  Tm  Tm3  1  0.00000000  0.86193100  0.25000000  1
  Ge  Ge4  1  0.00000000  0.41272000  0.75000000  1
  Ge  Ge5  1  0.50000000  0.08728000  0.25000000  1
  Ge  Ge6  1  0.50000000  0.91272000  0.75000000  1
  Ge  Ge7  1  0.00000000  0.58728000  0.25000000  1
