# generated using pymatgen
data_TbAg3
_symmetry_space_group_name_H-M   'P 1'
_cell_length_a   6.32658212
_cell_length_b   6.32658212
_cell_length_c   4.89660200
_cell_angle_alpha   90.00000000
_cell_angle_beta   90.00000000
_cell_angle_gamma   120.00000000
_symmetry_Int_Tables_number   1
_chemical_formula_structural   TbAg3
_chemical_formula_sum   'Tb2 Ag6'
_cell_volume   169.73200289
_cell_formula_units_Z   2
loop_
 _symmetry_equiv_pos_site_id
 _symmetry_equiv_pos_as_xyz
  1  'x, y, z'
loop_
 _atom_site_type_symbol
 _atom_site_label
 _atom_site_symmetry_multiplicity
 _atom_site_fract_x
 _atom_site_fract_y
 _atom_site_fract_z
 _atom_site_occupancy
  Tb  Tb0  1  0.66666667  0.33333333  0.25000000  1
  Tb  Tb1  1  0.33333333  0.66666667  0.75000000  1
  Ag  Ag2  1  0.31350700  0.15675350  0.75000000  1
  Ag  Ag3  1  0.84324650  0.15675350  0.75000000  1
  Ag  Ag4  1  0.84324650  0.68649300  0.75000000  1
  Ag  Ag5  1  0.68649300  0.84324650  0.25000000  1
  Ag  Ag6  1  0.15675350  0.84324650  0.25000000  1
  Ag  Ag7  1  0.15675350  0.31350700  0.25000000  1
