# generated using pymatgen
data_Y2Si5Rh3
_symmetry_space_group_name_H-M   'P 1'
_cell_length_a   11.12847000
_cell_length_b   11.81324800
_cell_length_c   5.70973366
_cell_angle_alpha   90.00000000
_cell_angle_beta   118.24407383
_cell_angle_gamma   90.00000000
_symmetry_Int_Tables_number   1
_chemical_formula_structural   Y2Si5Rh3
_chemical_formula_sum   'Y8 Si20 Rh12'
_cell_volume   661.25171016
_cell_formula_units_Z   4
loop_
 _symmetry_equiv_pos_site_id
 _symmetry_equiv_pos_as_xyz
  1  'x, y, z'
loop_
 _atom_site_type_symbol
 _atom_site_label
 _atom_site_symmetry_multiplicity
 _atom_site_fract_x
 _atom_site_fract_y
 _atom_site_fract_z
 _atom_site_occupancy
  Y  Y0  1  0.26684350  0.86602250  0.76006500  1
  Y  Y1  1  0.73315650  0.13397750  0.23993500  1
  Y  Y2  1  0.73315650  0.86602250  0.73993500  1
  Y  Y3  1  0.26684350  0.13397750  0.26006500  1
  Y  Y4  1  0.76684350  0.36602250  0.76006500  1
  Y  Y5  1  0.23315650  0.63397750  0.23993500  1
  Y  Y6  1  0.23315650  0.36602250  0.73993500  1
  Y  Y7  1  0.76684350  0.63397750  0.26006500  1
  Si  Si8  1  0.50000000  0.72408900  0.75000000  1
  Si  Si9  1  0.50000000  0.27591100  0.25000000  1
  Si  Si10  1  0.50000000  0.98774400  0.75000000  1
  Si  Si11  1  0.50000000  0.01225600  0.25000000  1
  Si  Si12  1  0.50000000  0.28968000  0.75000000  1
  Si  Si13  1  0.50000000  0.71032000  0.25000000  1
  Si  Si14  1  0.83776300  0.89576500  0.33877400  1
  Si  Si15  1  0.16223700  0.10423500  0.66122600  1
  Si  Si16  1  0.16223700  0.89576500  0.16122600  1
  Si  Si17  1  0.83776300  0.10423500  0.83877400  1
  Si  Si18  1  0.00000000  0.22408900  0.75000000  1
  Si  Si19  1  0.00000000  0.77591100  0.25000000  1
  Si  Si20  1  0.00000000  0.48774400  0.75000000  1
  Si  Si21  1  0.00000000  0.51225600  0.25000000  1
  Si  Si22  1  0.00000000  0.78968000  0.75000000  1
  Si  Si23  1  0.00000000  0.21032000  0.25000000  1
  Si  Si24  1  0.33776300  0.39576500  0.33877400  1
  Si  Si25  1  0.66223700  0.60423500  0.66122600  1
  Si  Si26  1  0.66223700  0.39576500  0.16122600  1
  Si  Si27  1  0.33776300  0.60423500  0.83877400  1
  Rh  Rh28  1  0.60007900  0.86037200  0.12625400  1
  Rh  Rh29  1  0.39992100  0.86037200  0.37374600  1
  Rh  Rh30  1  0.39992100  0.13962800  0.87374600  1
  Rh  Rh31  1  0.60007900  0.13962800  0.62625400  1
  Rh  Rh32  1  0.50000000  0.50203800  0.25000000  1
  Rh  Rh33  1  0.50000000  0.49796200  0.75000000  1
  Rh  Rh34  1  0.10007900  0.36037200  0.12625400  1
  Rh  Rh35  1  0.89992100  0.36037200  0.37374600  1
  Rh  Rh36  1  0.89992100  0.63962800  0.87374600  1
  Rh  Rh37  1  0.10007900  0.63962800  0.62625400  1
  Rh  Rh38  1  0.00000000  0.00203800  0.25000000  1
  Rh  Rh39  1  0.00000000  0.99796200  0.75000000  1
