# generated using pymatgen
data_Tb3ReB7
_symmetry_space_group_name_H-M   'P 1'
_cell_length_a   3.54963000
_cell_length_b   15.87123800
_cell_length_c   9.39183300
_cell_angle_alpha   90.00000000
_cell_angle_beta   90.00000000
_cell_angle_gamma   90.00000000
_symmetry_Int_Tables_number   1
_chemical_formula_structural   Tb3ReB7
_chemical_formula_sum   'Tb12 Re4 B28'
_cell_volume   529.10790743
_cell_formula_units_Z   4
loop_
 _symmetry_equiv_pos_site_id
 _symmetry_equiv_pos_as_xyz
  1  'x, y, z'
loop_
 _atom_site_type_symbol
 _atom_site_label
 _atom_site_symmetry_multiplicity
 _atom_site_fract_x
 _atom_site_fract_y
 _atom_site_fract_z
 _atom_site_occupancy
  Tb  Tb0  1  0.00000000  0.10516200  0.56042900  1
  Tb  Tb1  1  0.50000000  0.39483800  0.06042900  1
  Tb  Tb2  1  0.50000000  0.39483800  0.43957100  1
  Tb  Tb3  1  0.00000000  0.10516200  0.93957100  1
  Tb  Tb4  1  0.50000000  0.25758700  0.75000000  1
  Tb  Tb5  1  0.00000000  0.24241300  0.25000000  1
  Tb  Tb6  1  0.50000000  0.60516200  0.56042900  1
  Tb  Tb7  1  0.00000000  0.89483800  0.06042900  1
  Tb  Tb8  1  0.00000000  0.89483800  0.43957100  1
  Tb  Tb9  1  0.50000000  0.60516200  0.93957100  1
  Tb  Tb10  1  0.00000000  0.75758700  0.75000000  1
  Tb  Tb11  1  0.50000000  0.74241300  0.25000000  1
  Re  Re12  1  0.50000000  0.44685850  0.75000000  1
  Re  Re13  1  0.00000000  0.05314150  0.25000000  1
  Re  Re14  1  0.00000000  0.94685850  0.75000000  1
  Re  Re15  1  0.50000000  0.55314150  0.25000000  1
  B  B16  1  0.50000000  0.04108100  0.75000000  1
  B  B17  1  0.00000000  0.45891900  0.25000000  1
  B  B18  1  0.00000000  0.27308000  0.53303900  1
  B  B19  1  0.50000000  0.22692000  0.03303900  1
  B  B20  1  0.50000000  0.22692000  0.46696100  1
  B  B21  1  0.00000000  0.27308000  0.96696100  1
  B  B22  1  0.00000000  0.36799000  0.84909700  1
  B  B23  1  0.50000000  0.13201000  0.34909700  1
  B  B24  1  0.50000000  0.13201000  0.15090300  1
  B  B25  1  0.00000000  0.36799000  0.65090300  1
  B  B26  1  0.00000000  0.47858000  0.90416300  1
  B  B27  1  0.50000000  0.02142000  0.40416300  1
  B  B28  1  0.50000000  0.02142000  0.09583700  1
  B  B29  1  0.00000000  0.47858000  0.59583700  1
  B  B30  1  0.00000000  0.54108100  0.75000000  1
  B  B31  1  0.50000000  0.95891900  0.25000000  1
  B  B32  1  0.50000000  0.77308000  0.53303900  1
  B  B33  1  0.00000000  0.72692000  0.03303900  1
  B  B34  1  0.00000000  0.72692000  0.46696100  1
  B  B35  1  0.50000000  0.77308000  0.96696100  1
  B  B36  1  0.50000000  0.86799000  0.84909700  1
  B  B37  1  0.00000000  0.63201000  0.34909700  1
  B  B38  1  0.00000000  0.63201000  0.15090300  1
  B  B39  1  0.50000000  0.86799000  0.65090300  1
  B  B40  1  0.50000000  0.97858000  0.90416300  1
  B  B41  1  0.00000000  0.52142000  0.40416300  1
  B  B42  1  0.00000000  0.52142000  0.09583700  1
  B  B43  1  0.50000000  0.97858000  0.59583700  1
