# generated using pymatgen
data_Tm6GaCo2
_symmetry_space_group_name_H-M   'P 1'
_cell_length_a   9.19797000
_cell_length_b   9.35465600
_cell_length_c   9.76510000
_cell_angle_alpha   90.00000000
_cell_angle_beta   90.00000000
_cell_angle_gamma   90.00000000
_symmetry_Int_Tables_number   1
_chemical_formula_structural   Tm6GaCo2
_chemical_formula_sum   'Tm24 Ga4 Co8'
_cell_volume   840.22675323
_cell_formula_units_Z   4
loop_
 _symmetry_equiv_pos_site_id
 _symmetry_equiv_pos_as_xyz
  1  'x, y, z'
loop_
 _atom_site_type_symbol
 _atom_site_label
 _atom_site_symmetry_multiplicity
 _atom_site_fract_x
 _atom_site_fract_y
 _atom_site_fract_z
 _atom_site_occupancy
  Tm  Tm0  1  0.00000000  0.29881800  0.26448500  1
  Tm  Tm1  1  0.21794700  0.18358000  0.00000000  1
  Tm  Tm2  1  0.78205300  0.18358000  0.00000000  1
  Tm  Tm3  1  0.30498000  0.50000000  0.17977200  1
  Tm  Tm4  1  0.19502000  0.00000000  0.67977200  1
  Tm  Tm5  1  0.00000000  0.70118200  0.26448500  1
  Tm  Tm6  1  0.50000000  0.79881800  0.23551500  1
  Tm  Tm7  1  0.30498000  0.50000000  0.82022800  1
  Tm  Tm8  1  0.19502000  0.00000000  0.32022800  1
  Tm  Tm9  1  0.71794700  0.31642000  0.50000000  1
  Tm  Tm10  1  0.28205300  0.31642000  0.50000000  1
  Tm  Tm11  1  0.50000000  0.20118200  0.23551500  1
  Tm  Tm12  1  0.50000000  0.79881800  0.76448500  1
  Tm  Tm13  1  0.71794700  0.68358000  0.50000000  1
  Tm  Tm14  1  0.28205300  0.68358000  0.50000000  1
  Tm  Tm15  1  0.80498000  0.00000000  0.67977200  1
  Tm  Tm16  1  0.69502000  0.50000000  0.17977200  1
  Tm  Tm17  1  0.50000000  0.20118200  0.76448500  1
  Tm  Tm18  1  0.00000000  0.29881800  0.73551500  1
  Tm  Tm19  1  0.80498000  0.00000000  0.32022800  1
  Tm  Tm20  1  0.69502000  0.50000000  0.82022800  1
  Tm  Tm21  1  0.21794700  0.81642000  0.00000000  1
  Tm  Tm22  1  0.78205300  0.81642000  0.00000000  1
  Tm  Tm23  1  0.00000000  0.70118200  0.73551500  1
  Ga  Ga24  1  0.50000000  0.00000000  0.00000000  1
  Ga  Ga25  1  0.00000000  0.50000000  0.00000000  1
  Ga  Ga26  1  0.00000000  0.50000000  0.50000000  1
  Ga  Ga27  1  0.50000000  0.00000000  0.50000000  1
  Co  Co28  1  0.00000000  0.00000000  0.88571800  1
  Co  Co29  1  0.50000000  0.36449100  0.00000000  1
  Co  Co30  1  0.00000000  0.13550900  0.50000000  1
  Co  Co31  1  0.00000000  0.00000000  0.11428200  1
  Co  Co32  1  0.50000000  0.50000000  0.38571800  1
  Co  Co33  1  0.00000000  0.86449100  0.50000000  1
  Co  Co34  1  0.50000000  0.63550900  0.00000000  1
  Co  Co35  1  0.50000000  0.50000000  0.61428200  1
