# generated using pymatgen
data_PrCuGe2
_symmetry_space_group_name_H-M   'P 1'
_cell_length_a   4.27845400
_cell_length_b   17.48808600
_cell_length_c   4.23524300
_cell_angle_alpha   90.00000000
_cell_angle_beta   90.00000000
_cell_angle_gamma   90.00000000
_symmetry_Int_Tables_number   1
_chemical_formula_structural   PrCuGe2
_chemical_formula_sum   'Pr4 Cu4 Ge8'
_cell_volume   316.88923104
_cell_formula_units_Z   4
loop_
 _symmetry_equiv_pos_site_id
 _symmetry_equiv_pos_as_xyz
  1  'x, y, z'
loop_
 _atom_site_type_symbol
 _atom_site_label
 _atom_site_symmetry_multiplicity
 _atom_site_fract_x
 _atom_site_fract_y
 _atom_site_fract_z
 _atom_site_occupancy
  Pr  Pr0  1  0.00000000  0.10385000  0.25000000  1
  Pr  Pr1  1  0.50000000  0.39615000  0.75000000  1
  Pr  Pr2  1  0.50000000  0.60385000  0.25000000  1
  Pr  Pr3  1  0.00000000  0.89615000  0.75000000  1
  Cu  Cu4  1  0.00000000  0.32473500  0.25000000  1
  Cu  Cu5  1  0.50000000  0.17526500  0.75000000  1
  Cu  Cu6  1  0.50000000  0.82473500  0.25000000  1
  Cu  Cu7  1  0.00000000  0.67526500  0.75000000  1
  Ge  Ge8  1  0.50000000  0.25086300  0.25000000  1
  Ge  Ge9  1  0.00000000  0.24913700  0.75000000  1
  Ge  Ge10  1  0.00000000  0.46112100  0.25000000  1
  Ge  Ge11  1  0.50000000  0.03887900  0.75000000  1
  Ge  Ge12  1  0.00000000  0.75086300  0.25000000  1
  Ge  Ge13  1  0.50000000  0.74913700  0.75000000  1
  Ge  Ge14  1  0.50000000  0.96112100  0.25000000  1
  Ge  Ge15  1  0.00000000  0.53887900  0.75000000  1
