# generated using pymatgen
data_Lu2Ni12As7
_symmetry_space_group_name_H-M   'P 1'
_cell_length_a   9.36396116
_cell_length_b   9.36396116
_cell_length_c   3.77733400
_cell_angle_alpha   90.00000000
_cell_angle_beta   90.00000000
_cell_angle_gamma   120.00000000
_symmetry_Int_Tables_number   1
_chemical_formula_structural   Lu2Ni12As7
_chemical_formula_sum   'Lu2 Ni12 As7'
_cell_volume   286.83703633
_cell_formula_units_Z   1
loop_
 _symmetry_equiv_pos_site_id
 _symmetry_equiv_pos_as_xyz
  1  'x, y, z'
loop_
 _atom_site_type_symbol
 _atom_site_label
 _atom_site_symmetry_multiplicity
 _atom_site_fract_x
 _atom_site_fract_y
 _atom_site_fract_z
 _atom_site_occupancy
  Lu  Lu0  1  0.66666667  0.33333333  0.00000000  1
  Lu  Lu1  1  0.00000000  0.00000000  0.50000000  1
  Ni  Ni2  1  0.48651867  0.94682633  0.00000000  1
  Ni  Ni3  1  0.05317367  0.53969233  0.00000000  1
  Ni  Ni4  1  0.46030767  0.51348133  0.00000000  1
  Ni  Ni5  1  0.71230667  0.09500333  0.50000000  1
  Ni  Ni6  1  0.90499667  0.61730333  0.50000000  1
  Ni  Ni7  1  0.38269667  0.28769333  0.50000000  1
  Ni  Ni8  1  0.77306867  0.72478133  0.00000000  1
  Ni  Ni9  1  0.27521867  0.04828733  0.00000000  1
  Ni  Ni10  1  0.95171267  0.22693133  0.00000000  1
  Ni  Ni11  1  0.54709767  0.76252733  0.50000000  1
  Ni  Ni12  1  0.23747267  0.78457033  0.50000000  1
  Ni  Ni13  1  0.21542967  0.45290233  0.50000000  1
  As  As14  1  0.33333333  0.66666667  0.00000000  1
  As  As15  1  0.44699567  0.07697533  0.50000000  1
  As  As16  1  0.92302467  0.37002033  0.50000000  1
  As  As17  1  0.62997967  0.55300433  0.50000000  1
  As  As18  1  0.73932067  0.95244333  0.00000000  1
  As  As19  1  0.04755667  0.78687733  0.00000000  1
  As  As20  1  0.21312267  0.26067933  0.00000000  1
