# generated using pymatgen
data_HoMgSn
_symmetry_space_group_name_H-M   'P 1'
_cell_length_a   4.38787400
_cell_length_b   4.38787400
_cell_length_c   15.88549200
_cell_angle_alpha   90.00000000
_cell_angle_beta   90.00000000
_cell_angle_gamma   90.00000000
_symmetry_Int_Tables_number   1
_chemical_formula_structural   HoMgSn
_chemical_formula_sum   'Ho4 Mg4 Sn4'
_cell_volume   305.85033913
_cell_formula_units_Z   4
loop_
 _symmetry_equiv_pos_site_id
 _symmetry_equiv_pos_as_xyz
  1  'x, y, z'
loop_
 _atom_site_type_symbol
 _atom_site_label
 _atom_site_symmetry_multiplicity
 _atom_site_fract_x
 _atom_site_fract_y
 _atom_site_fract_z
 _atom_site_occupancy
  Ho  Ho0  1  0.50000000  0.50000000  0.16763100  1
  Ho  Ho1  1  0.00000000  0.00000000  0.33236900  1
  Ho  Ho2  1  0.00000000  0.00000000  0.66763100  1
  Ho  Ho3  1  0.50000000  0.50000000  0.83236900  1
  Mg  Mg4  1  0.50000000  0.00000000  0.00000000  1
  Mg  Mg5  1  0.00000000  0.50000000  0.00000000  1
  Mg  Mg6  1  0.00000000  0.50000000  0.50000000  1
  Mg  Mg7  1  0.50000000  0.00000000  0.50000000  1
  Sn  Sn8  1  0.00000000  0.00000000  0.13582500  1
  Sn  Sn9  1  0.50000000  0.50000000  0.36417500  1
  Sn  Sn10  1  0.50000000  0.50000000  0.63582500  1
  Sn  Sn11  1  0.00000000  0.00000000  0.86417500  1
