# generated using pymatgen
data_Rb(Mg4Al3)4
_symmetry_space_group_name_H-M   'P 1'
_cell_length_a   15.13800172
_cell_length_b   15.13800172
_cell_length_c   9.16693883
_cell_angle_alpha   90.00000000
_cell_angle_beta   90.00000000
_cell_angle_gamma   120.00000000
_symmetry_Int_Tables_number   1
_chemical_formula_structural   Rb(Mg4Al3)4
_chemical_formula_sum   'Rb3 Mg48 Al36'
_cell_volume   1819.24866834
_cell_formula_units_Z   3
loop_
 _symmetry_equiv_pos_site_id
 _symmetry_equiv_pos_as_xyz
  1  'x, y, z'
loop_
 _atom_site_type_symbol
 _atom_site_label
 _atom_site_symmetry_multiplicity
 _atom_site_fract_x
 _atom_site_fract_y
 _atom_site_fract_z
 _atom_site_occupancy
  Rb  Rb0  1  0.00000000  0.00000000  0.62806300  1
  Rb  Rb1  1  0.66666667  0.33333333  0.96139633  1
  Rb  Rb2  1  0.33333333  0.66666667  0.29472967  1
  Mg  Mg3  1  0.21858767  0.43717533  0.78334133  1
  Mg  Mg4  1  0.22326333  0.44652667  0.16138467  1
  Mg  Mg5  1  0.13366533  0.26733067  0.55321967  1
  Mg  Mg6  1  0.63073800  0.97366900  0.97344900  1
  Mg  Mg7  1  0.67626433  0.03592867  0.64011567  1
  Mg  Mg8  1  0.55347333  0.77673667  0.16138467  1
  Mg  Mg9  1  0.56282467  0.78141233  0.78334133  1
  Mg  Mg10  1  0.69299767  0.99040233  0.30678233  1
  Mg  Mg11  1  0.80033200  0.19966800  0.88655300  1
  Mg  Mg12  1  0.73266933  0.86633467  0.55321967  1
  Mg  Mg13  1  0.96407133  0.32373567  0.64011567  1
  Mg  Mg14  1  0.88525433  0.11474567  0.11667467  1
  Mg  Mg15  1  0.88993000  0.11007000  0.49471800  1
  Mg  Mg16  1  0.02633100  0.36926200  0.97344900  1
  Mg  Mg17  1  0.00959767  0.30700233  0.30678233  1
  Mg  Mg18  1  0.00000000  0.00000000  0.00462800  1
  Mg  Mg19  1  0.88525433  0.77050867  0.11667467  1
  Mg  Mg20  1  0.88993000  0.77986000  0.49471800  1
  Mg  Mg21  1  0.80033200  0.60066400  0.88655300  1
  Mg  Mg22  1  0.29740467  0.30700233  0.30678233  1
  Mg  Mg23  1  0.34293100  0.36926200  0.97344900  1
  Mg  Mg24  1  0.22014000  0.11007000  0.49471800  1
  Mg  Mg25  1  0.22949133  0.11474567  0.11667467  1
  Mg  Mg26  1  0.35966433  0.32373567  0.64011567  1
  Mg  Mg27  1  0.46699867  0.53300133  0.21988633  1
  Mg  Mg28  1  0.39933600  0.19966800  0.88655300  1
  Mg  Mg29  1  0.63073800  0.65706900  0.97344900  1
  Mg  Mg30  1  0.55192100  0.44807900  0.45000800  1
  Mg  Mg31  1  0.55659667  0.44340333  0.82805133  1
  Mg  Mg32  1  0.69299767  0.70259533  0.30678233  1
  Mg  Mg33  1  0.67626433  0.64033567  0.64011567  1
  Mg  Mg34  1  0.66666667  0.33333333  0.33796133  1
  Mg  Mg35  1  0.55192100  0.10384200  0.45000800  1
  Mg  Mg36  1  0.55659667  0.11319333  0.82805133  1
  Mg  Mg37  1  0.46699867  0.93399733  0.21988633  1
  Mg  Mg38  1  0.96407133  0.64033567  0.64011567  1
  Mg  Mg39  1  0.00959767  0.70259533  0.30678233  1
  Mg  Mg40  1  0.88680667  0.44340333  0.82805133  1
  Mg  Mg41  1  0.89615800  0.44807900  0.45000800  1
  Mg  Mg42  1  0.02633100  0.65706900  0.97344900  1
  Mg  Mg43  1  0.13366533  0.86633467  0.55321967  1
  Mg  Mg44  1  0.06600267  0.53300133  0.21988633  1
  Mg  Mg45  1  0.29740467  0.99040233  0.30678233  1
  Mg  Mg46  1  0.21858767  0.78141233  0.78334133  1
  Mg  Mg47  1  0.22326333  0.77673667  0.16138467  1
  Mg  Mg48  1  0.35966433  0.03592867  0.64011567  1
  Mg  Mg49  1  0.34293100  0.97366900  0.97344900  1
  Mg  Mg50  1  0.33333333  0.66666667  0.67129467  1
  Al  Al51  1  0.06247933  0.12495867  0.30172967  1
  Al  Al52  1  0.66370100  0.14491000  0.15585800  1
  Al  Al53  1  0.72914600  0.27085400  0.63506300  1
  Al  Al54  1  0.52175667  0.85212433  0.48919133  1
  Al  Al55  1  0.78788833  0.21211167  0.39748267  1
  Al  Al56  1  0.85509000  0.33629900  0.15585800  1
  Al  Al57  1  0.81454233  0.00296567  0.82252467  1
  Al  Al58  1  0.75755667  0.87877833  0.06414933  1
  Al  Al59  1  0.99703433  0.18545767  0.82252467  1
  Al  Al60  1  0.87504133  0.93752067  0.30172967  1
  Al  Al61  1  0.14787567  0.47824333  0.48919133  1
  Al  Al62  1  0.12122167  0.24244333  0.06414933  1
  Al  Al63  1  0.72914600  0.45829200  0.63506300  1
  Al  Al64  1  0.33036767  0.47824333  0.48919133  1
  Al  Al65  1  0.39581267  0.60418733  0.96839633  1
  Al  Al66  1  0.18842333  0.18545767  0.82252467  1
  Al  Al67  1  0.45455500  0.54544500  0.73081600  1
  Al  Al68  1  0.52175667  0.66963233  0.48919133  1
  Al  Al69  1  0.48120900  0.33629900  0.15585800  1
  Al  Al70  1  0.42422333  0.21211167  0.39748267  1
  Al  Al71  1  0.66370100  0.51879100  0.15585800  1
  Al  Al72  1  0.54170800  0.27085400  0.63506300  1
  Al  Al73  1  0.81454233  0.81157667  0.82252467  1
  Al  Al74  1  0.78788833  0.57577667  0.39748267  1
  Al  Al75  1  0.39581267  0.79162533  0.96839633  1
  Al  Al76  1  0.99703433  0.81157667  0.82252467  1
  Al  Al77  1  0.06247933  0.93752067  0.30172967  1
  Al  Al78  1  0.85509000  0.51879100  0.15585800  1
  Al  Al79  1  0.12122167  0.87877833  0.06414933  1
  Al  Al80  1  0.18842333  0.00296567  0.82252467  1
  Al  Al81  1  0.14787567  0.66963233  0.48919133  1
  Al  Al82  1  0.09089000  0.54544500  0.73081600  1
  Al  Al83  1  0.33036767  0.85212433  0.48919133  1
  Al  Al84  1  0.20837467  0.60418733  0.96839633  1
  Al  Al85  1  0.48120900  0.14491000  0.15585800  1
  Al  Al86  1  0.45455500  0.90911000  0.73081600  1
