# generated using pymatgen
data_Nd3IrO7
_symmetry_space_group_name_H-M   'P 1'
_cell_length_a   7.52763400
_cell_length_b   10.97312600
_cell_length_c   7.60085300
_cell_angle_alpha   90.00000000
_cell_angle_beta   90.00000000
_cell_angle_gamma   90.00000000
_symmetry_Int_Tables_number   1
_chemical_formula_structural   Nd3IrO7
_chemical_formula_sum   'Nd12 Ir4 O28'
_cell_volume   627.84319960
_cell_formula_units_Z   4
loop_
 _symmetry_equiv_pos_site_id
 _symmetry_equiv_pos_as_xyz
  1  'x, y, z'
loop_
 _atom_site_type_symbol
 _atom_site_label
 _atom_site_symmetry_multiplicity
 _atom_site_fract_x
 _atom_site_fract_y
 _atom_site_fract_z
 _atom_site_occupancy
  Nd  Nd0  1  0.00000000  0.00000000  0.00000000  1
  Nd  Nd1  1  0.00000000  0.00000000  0.50000000  1
  Nd  Nd2  1  0.69762450  0.77760850  0.75000000  1
  Nd  Nd3  1  0.30237550  0.22239150  0.25000000  1
  Nd  Nd4  1  0.69762450  0.22239150  0.75000000  1
  Nd  Nd5  1  0.30237550  0.77760850  0.25000000  1
  Nd  Nd6  1  0.50000000  0.50000000  0.00000000  1
  Nd  Nd7  1  0.50000000  0.50000000  0.50000000  1
  Nd  Nd8  1  0.19762450  0.27760850  0.75000000  1
  Nd  Nd9  1  0.80237550  0.72239150  0.25000000  1
  Nd  Nd10  1  0.19762450  0.72239150  0.75000000  1
  Nd  Nd11  1  0.80237550  0.27760850  0.25000000  1
  Ir  Ir12  1  0.50000000  0.00000000  0.00000000  1
  Ir  Ir13  1  0.50000000  0.00000000  0.50000000  1
  Ir  Ir14  1  0.00000000  0.50000000  0.00000000  1
  Ir  Ir15  1  0.00000000  0.50000000  0.50000000  1
  O  O16  1  0.58938000  0.00000000  0.75000000  1
  O  O17  1  0.41062000  0.00000000  0.25000000  1
  O  O18  1  0.47590050  0.36799050  0.75000000  1
  O  O19  1  0.52409950  0.63200950  0.25000000  1
  O  O20  1  0.47590050  0.63200950  0.75000000  1
  O  O21  1  0.52409950  0.36799050  0.25000000  1
  O  O22  1  0.31363700  0.12610800  0.96172200  1
  O  O23  1  0.68636300  0.87389200  0.46172200  1
  O  O24  1  0.31363700  0.87389200  0.96172200  1
  O  O25  1  0.68636300  0.12610800  0.46172200  1
  O  O26  1  0.31363700  0.12610800  0.53827800  1
  O  O27  1  0.68636300  0.87389200  0.03827800  1
  O  O28  1  0.68636300  0.12610800  0.03827800  1
  O  O29  1  0.31363700  0.87389200  0.53827800  1
  O  O30  1  0.08938000  0.50000000  0.75000000  1
  O  O31  1  0.91062000  0.50000000  0.25000000  1
  O  O32  1  0.97590050  0.86799050  0.75000000  1
  O  O33  1  0.02409950  0.13200950  0.25000000  1
  O  O34  1  0.97590050  0.13200950  0.75000000  1
  O  O35  1  0.02409950  0.86799050  0.25000000  1
  O  O36  1  0.81363700  0.62610800  0.96172200  1
  O  O37  1  0.18636300  0.37389200  0.46172200  1
  O  O38  1  0.81363700  0.37389200  0.96172200  1
  O  O39  1  0.18636300  0.62610800  0.46172200  1
  O  O40  1  0.81363700  0.62610800  0.53827800  1
  O  O41  1  0.18636300  0.37389200  0.03827800  1
  O  O42  1  0.18636300  0.62610800  0.03827800  1
  O  O43  1  0.81363700  0.37389200  0.53827800  1
