# generated using pymatgen
data_Ho(CuO2)2
_symmetry_space_group_name_H-M   'P 1'
_cell_length_a   5.67369600
_cell_length_b   5.67369600
_cell_length_c   9.61551800
_cell_angle_alpha   90.00000000
_cell_angle_beta   90.00000000
_cell_angle_gamma   90.00000000
_symmetry_Int_Tables_number   1
_chemical_formula_structural   Ho(CuO2)2
_chemical_formula_sum   'Ho4 Cu8 O16'
_cell_volume   309.53146973
_cell_formula_units_Z   4
loop_
 _symmetry_equiv_pos_site_id
 _symmetry_equiv_pos_as_xyz
  1  'x, y, z'
loop_
 _atom_site_type_symbol
 _atom_site_label
 _atom_site_symmetry_multiplicity
 _atom_site_fract_x
 _atom_site_fract_y
 _atom_site_fract_z
 _atom_site_occupancy
  Ho  Ho0  1  0.00000000  0.00000000  0.00000000  1
  Ho  Ho1  1  0.00000000  0.50000000  0.25000000  1
  Ho  Ho2  1  0.50000000  0.50000000  0.50000000  1
  Ho  Ho3  1  0.50000000  0.00000000  0.75000000  1
  Cu  Cu4  1  0.25000000  0.00000000  0.37500000  1
  Cu  Cu5  1  0.75000000  0.00000000  0.37500000  1
  Cu  Cu6  1  0.50000000  0.25000000  0.12500000  1
  Cu  Cu7  1  0.50000000  0.75000000  0.12500000  1
  Cu  Cu8  1  0.75000000  0.50000000  0.87500000  1
  Cu  Cu9  1  0.25000000  0.50000000  0.87500000  1
  Cu  Cu10  1  0.00000000  0.75000000  0.62500000  1
  Cu  Cu11  1  0.00000000  0.25000000  0.62500000  1
  O  O12  1  0.85157200  0.29365200  0.44745700  1
  O  O13  1  0.14842800  0.70634800  0.44745700  1
  O  O14  1  0.64842800  0.70634800  0.30254300  1
  O  O15  1  0.35157200  0.29365200  0.30254300  1
  O  O16  1  0.20634800  0.85157200  0.19745700  1
  O  O17  1  0.79365200  0.14842800  0.19745700  1
  O  O18  1  0.20634800  0.35157200  0.05254300  1
  O  O19  1  0.79365200  0.64842800  0.05254300  1
  O  O20  1  0.35157200  0.79365200  0.94745700  1
  O  O21  1  0.64842800  0.20634800  0.94745700  1
  O  O22  1  0.14842800  0.20634800  0.80254300  1
  O  O23  1  0.85157200  0.79365200  0.80254300  1
  O  O24  1  0.70634800  0.35157200  0.69745700  1
  O  O25  1  0.29365200  0.64842800  0.69745700  1
  O  O26  1  0.70634800  0.85157200  0.55254300  1
  O  O27  1  0.29365200  0.14842800  0.55254300  1
