# generated using pymatgen
data_CoSn3
_symmetry_space_group_name_H-M   'P 1'
_cell_length_a   6.30113600
_cell_length_b   6.30113600
_cell_length_c   34.09621600
_cell_angle_alpha   90.00000000
_cell_angle_beta   90.00000000
_cell_angle_gamma   90.00000000
_symmetry_Int_Tables_number   1
_chemical_formula_structural   CoSn3
_chemical_formula_sum   'Co16 Sn48'
_cell_volume   1353.76689664
_cell_formula_units_Z   16
loop_
 _symmetry_equiv_pos_site_id
 _symmetry_equiv_pos_as_xyz
  1  'x, y, z'
loop_
 _atom_site_type_symbol
 _atom_site_label
 _atom_site_symmetry_multiplicity
 _atom_site_fract_x
 _atom_site_fract_y
 _atom_site_fract_z
 _atom_site_occupancy
  Co  Co0  1  0.00000000  0.00000000  0.46015100  1
  Co  Co1  1  0.00000000  0.50000000  0.28984900  1
  Co  Co2  1  0.00000000  0.00000000  0.03984900  1
  Co  Co3  1  0.50000000  0.00000000  0.21015100  1
  Co  Co4  1  0.50000000  0.00000000  0.28984900  1
  Co  Co5  1  0.50000000  0.50000000  0.46015100  1
  Co  Co6  1  0.00000000  0.50000000  0.21015100  1
  Co  Co7  1  0.50000000  0.50000000  0.03984900  1
  Co  Co8  1  0.50000000  0.50000000  0.96015100  1
  Co  Co9  1  0.50000000  0.00000000  0.78984900  1
  Co  Co10  1  0.50000000  0.50000000  0.53984900  1
  Co  Co11  1  0.00000000  0.50000000  0.71015100  1
  Co  Co12  1  0.00000000  0.50000000  0.78984900  1
  Co  Co13  1  0.00000000  0.00000000  0.96015100  1
  Co  Co14  1  0.50000000  0.00000000  0.71015100  1
  Co  Co15  1  0.00000000  0.00000000  0.53984900  1
  Sn  Sn16  1  0.16458650  0.16458650  0.25000000  1
  Sn  Sn17  1  0.83541350  0.83541350  0.25000000  1
  Sn  Sn18  1  0.66458650  0.83541350  0.00000000  1
  Sn  Sn19  1  0.33541350  0.16458650  0.00000000  1
  Sn  Sn20  1  0.83541350  0.33541350  0.00000000  1
  Sn  Sn21  1  0.66458650  0.16458650  0.50000000  1
  Sn  Sn22  1  0.33541350  0.66458650  0.25000000  1
  Sn  Sn23  1  0.66458650  0.33541350  0.25000000  1
  Sn  Sn24  1  0.18020850  0.81782650  0.16735450  1
  Sn  Sn25  1  0.81979150  0.18217350  0.16735450  1
  Sn  Sn26  1  0.68020850  0.18217350  0.08264550  1
  Sn  Sn27  1  0.31979150  0.81782650  0.08264550  1
  Sn  Sn28  1  0.18217350  0.81979150  0.33264550  1
  Sn  Sn29  1  0.81782650  0.18020850  0.33264550  1
  Sn  Sn30  1  0.81782650  0.31979150  0.41735450  1
  Sn  Sn31  1  0.18217350  0.68020850  0.41735450  1
  Sn  Sn32  1  0.81979150  0.68217350  0.08264550  1
  Sn  Sn33  1  0.18020850  0.31782650  0.08264550  1
  Sn  Sn34  1  0.31979150  0.31782650  0.16735450  1
  Sn  Sn35  1  0.68020850  0.68217350  0.16735450  1
  Sn  Sn36  1  0.31782650  0.18020850  0.41735450  1
  Sn  Sn37  1  0.68217350  0.81979150  0.41735450  1
  Sn  Sn38  1  0.68217350  0.68020850  0.33264550  1
  Sn  Sn39  1  0.31782650  0.31979150  0.33264550  1
  Sn  Sn40  1  0.66458650  0.66458650  0.75000000  1
  Sn  Sn41  1  0.33541350  0.33541350  0.75000000  1
  Sn  Sn42  1  0.16458650  0.33541350  0.50000000  1
  Sn  Sn43  1  0.83541350  0.66458650  0.50000000  1
  Sn  Sn44  1  0.33541350  0.83541350  0.50000000  1
  Sn  Sn45  1  0.16458650  0.66458650  0.00000000  1
  Sn  Sn46  1  0.83541350  0.16458650  0.75000000  1
  Sn  Sn47  1  0.16458650  0.83541350  0.75000000  1
  Sn  Sn48  1  0.68020850  0.31782650  0.66735450  1
  Sn  Sn49  1  0.31979150  0.68217350  0.66735450  1
  Sn  Sn50  1  0.18020850  0.68217350  0.58264550  1
  Sn  Sn51  1  0.81979150  0.31782650  0.58264550  1
  Sn  Sn52  1  0.68217350  0.31979150  0.83264550  1
  Sn  Sn53  1  0.31782650  0.68020850  0.83264550  1
  Sn  Sn54  1  0.31782650  0.81979150  0.91735450  1
  Sn  Sn55  1  0.68217350  0.18020850  0.91735450  1
  Sn  Sn56  1  0.31979150  0.18217350  0.58264550  1
  Sn  Sn57  1  0.68020850  0.81782650  0.58264550  1
  Sn  Sn58  1  0.81979150  0.81782650  0.66735450  1
  Sn  Sn59  1  0.18020850  0.18217350  0.66735450  1
  Sn  Sn60  1  0.81782650  0.68020850  0.91735450  1
  Sn  Sn61  1  0.18217350  0.31979150  0.91735450  1
  Sn  Sn62  1  0.18217350  0.18020850  0.83264550  1
  Sn  Sn63  1  0.81782650  0.81979150  0.83264550  1
