# generated using pymatgen
data_Pr2Fe17C3
_symmetry_space_group_name_H-M   'P 1'
_cell_length_a   8.78813546
_cell_length_b   8.78813546
_cell_length_c   12.48405296
_cell_angle_alpha   90.00000000
_cell_angle_beta   90.00000000
_cell_angle_gamma   120.00000000
_symmetry_Int_Tables_number   1
_chemical_formula_structural   Pr2Fe17C3
_chemical_formula_sum   'Pr6 Fe51 C9'
_cell_volume   834.98701030
_cell_formula_units_Z   3
loop_
 _symmetry_equiv_pos_site_id
 _symmetry_equiv_pos_as_xyz
  1  'x, y, z'
loop_
 _atom_site_type_symbol
 _atom_site_label
 _atom_site_symmetry_multiplicity
 _atom_site_fract_x
 _atom_site_fract_y
 _atom_site_fract_z
 _atom_site_occupancy
  Pr  Pr0  1  0.33333333  0.66666667  0.32168367  1
  Pr  Pr1  1  0.33333333  0.66666667  0.01164967  1
  Pr  Pr2  1  0.00000000  0.00000000  0.65501700  1
  Pr  Pr3  1  0.00000000  0.00000000  0.34498300  1
  Pr  Pr4  1  0.66666667  0.33333333  0.98835033  1
  Pr  Pr5  1  0.66666667  0.33333333  0.67831633  1
  Fe  Fe6  1  0.16666667  0.83333333  0.83333333  1
  Fe  Fe7  1  0.83333333  0.66666667  0.16666667  1
  Fe  Fe8  1  0.33333333  0.16666667  0.16666667  1
  Fe  Fe9  1  0.95089267  0.61755933  0.33333333  1
  Fe  Fe10  1  0.71577400  1.00000000  0.00000000  1
  Fe  Fe11  1  0.00000000  0.71577400  0.00000000  1
  Fe  Fe12  1  0.28422600  1.00000000  0.00000000  1
  Fe  Fe13  1  0.00000000  0.28422600  0.00000000  1
  Fe  Fe14  1  0.38244067  0.04910733  0.33333333  1
  Fe  Fe15  1  0.16074500  0.83925500  0.18020800  1
  Fe  Fe16  1  0.16074500  0.32149000  0.18020800  1
  Fe  Fe17  1  0.67851000  0.83925500  0.18020800  1
  Fe  Fe18  1  0.50592167  0.49407833  0.15312533  1
  Fe  Fe19  1  0.50592167  0.01184333  0.15312533  1
  Fe  Fe20  1  0.98815667  0.49407833  0.15312533  1
  Fe  Fe21  1  0.33333333  0.66666667  0.57211867  1
  Fe  Fe22  1  0.33333333  0.66666667  0.76121467  1
  Fe  Fe23  1  0.83333333  0.16666667  0.16666667  1
  Fe  Fe24  1  0.50000000  0.00000000  0.50000000  1
  Fe  Fe25  1  0.00000000  0.50000000  0.50000000  1
  Fe  Fe26  1  0.61755933  0.95089267  0.66666667  1
  Fe  Fe27  1  0.38244067  0.33333333  0.33333333  1
  Fe  Fe28  1  0.66666667  0.04910733  0.33333333  1
  Fe  Fe29  1  0.95089267  0.33333333  0.33333333  1
  Fe  Fe30  1  0.66666667  0.61755933  0.33333333  1
  Fe  Fe31  1  0.04910733  0.38244067  0.66666667  1
  Fe  Fe32  1  0.82741167  0.17258833  0.51354133  1
  Fe  Fe33  1  0.82741167  0.65482333  0.51354133  1
  Fe  Fe34  1  0.34517667  0.17258833  0.51354133  1
  Fe  Fe35  1  0.17258833  0.82741167  0.48645867  1
  Fe  Fe36  1  0.17258833  0.34517667  0.48645867  1
  Fe  Fe37  1  0.65482333  0.82741167  0.48645867  1
  Fe  Fe38  1  0.00000000  0.00000000  0.90545200  1
  Fe  Fe39  1  0.00000000  0.00000000  0.09454800  1
  Fe  Fe40  1  0.50000000  0.50000000  0.50000000  1
  Fe  Fe41  1  0.16666667  0.33333333  0.83333333  1
  Fe  Fe42  1  0.66666667  0.83333333  0.83333333  1
  Fe  Fe43  1  0.28422600  0.28422600  0.00000000  1
  Fe  Fe44  1  0.04910733  0.66666667  0.66666667  1
  Fe  Fe45  1  0.33333333  0.38244067  0.66666667  1
  Fe  Fe46  1  0.61755933  0.66666667  0.66666667  1
  Fe  Fe47  1  0.33333333  0.95089267  0.66666667  1
  Fe  Fe48  1  0.71577400  0.71577400  0.00000000  1
  Fe  Fe49  1  0.49407833  0.50592167  0.84687467  1
  Fe  Fe50  1  0.49407833  0.98815667  0.84687467  1
  Fe  Fe51  1  0.01184333  0.50592167  0.84687467  1
  Fe  Fe52  1  0.83925500  0.16074500  0.81979200  1
  Fe  Fe53  1  0.83925500  0.67851000  0.81979200  1
  Fe  Fe54  1  0.32149000  0.16074500  0.81979200  1
  Fe  Fe55  1  0.66666667  0.33333333  0.23878533  1
  Fe  Fe56  1  0.66666667  0.33333333  0.42788133  1
  C  C57  1  0.16666667  0.83333333  0.33333333  1
  C  C58  1  0.50000000  0.00000000  0.00000000  1
  C  C59  1  0.00000000  0.50000000  0.00000000  1
  C  C60  1  0.83333333  0.16666667  0.66666667  1
  C  C61  1  0.16666667  0.33333333  0.33333333  1
  C  C62  1  0.66666667  0.83333333  0.33333333  1
  C  C63  1  0.50000000  0.50000000  0.00000000  1
  C  C64  1  0.83333333  0.66666667  0.66666667  1
  C  C65  1  0.33333333  0.16666667  0.66666667  1
