# generated using pymatgen
data_K3TlAu5
_symmetry_space_group_name_H-M   'P 1'
_cell_length_a   5.77645600
_cell_length_b   8.58316000
_cell_length_c   20.15806200
_cell_angle_alpha   90.00000000
_cell_angle_beta   90.00000000
_cell_angle_gamma   90.00000000
_symmetry_Int_Tables_number   1
_chemical_formula_structural   K3TlAu5
_chemical_formula_sum   'K12 Tl4 Au20'
_cell_volume   999.44167448
_cell_formula_units_Z   4
loop_
 _symmetry_equiv_pos_site_id
 _symmetry_equiv_pos_as_xyz
  1  'x, y, z'
loop_
 _atom_site_type_symbol
 _atom_site_label
 _atom_site_symmetry_multiplicity
 _atom_site_fract_x
 _atom_site_fract_y
 _atom_site_fract_z
 _atom_site_occupancy
  K  K0  1  0.50000000  0.11894900  0.08638300  1
  K  K1  1  0.00000000  0.38105100  0.08638300  1
  K  K2  1  0.00000000  0.61914300  0.25000000  1
  K  K3  1  0.50000000  0.88085700  0.25000000  1
  K  K4  1  0.50000000  0.11894900  0.41361700  1
  K  K5  1  0.00000000  0.38105100  0.41361700  1
  K  K6  1  0.00000000  0.61894900  0.58638300  1
  K  K7  1  0.50000000  0.88105100  0.58638300  1
  K  K8  1  0.50000000  0.11914300  0.75000000  1
  K  K9  1  0.00000000  0.38085700  0.75000000  1
  K  K10  1  0.00000000  0.61894900  0.91361700  1
  K  K11  1  0.50000000  0.88105100  0.91361700  1
  Tl  Tl12  1  0.50000000  0.33409400  0.25000000  1
  Tl  Tl13  1  0.00000000  0.16590600  0.25000000  1
  Tl  Tl14  1  0.00000000  0.83409400  0.75000000  1
  Tl  Tl15  1  0.50000000  0.66590600  0.75000000  1
  Au  Au16  1  0.50000000  0.50000000  0.00000000  1
  Au  Au17  1  0.00000000  0.00000000  0.00000000  1
  Au  Au18  1  0.75000000  0.75000000  0.06029100  1
  Au  Au19  1  0.25000000  0.75000000  0.06029100  1
  Au  Au20  1  0.50000000  0.54269300  0.14381500  1
  Au  Au21  1  0.00000000  0.95730700  0.14381500  1
  Au  Au22  1  0.50000000  0.54269300  0.35618500  1
  Au  Au23  1  0.00000000  0.95730700  0.35618500  1
  Au  Au24  1  0.25000000  0.75000000  0.43970900  1
  Au  Au25  1  0.75000000  0.75000000  0.43970900  1
  Au  Au26  1  0.00000000  0.00000000  0.50000000  1
  Au  Au27  1  0.50000000  0.50000000  0.50000000  1
  Au  Au28  1  0.25000000  0.25000000  0.56029100  1
  Au  Au29  1  0.75000000  0.25000000  0.56029100  1
  Au  Au30  1  0.00000000  0.04269300  0.64381500  1
  Au  Au31  1  0.50000000  0.45730700  0.64381500  1
  Au  Au32  1  0.00000000  0.04269300  0.85618500  1
  Au  Au33  1  0.50000000  0.45730700  0.85618500  1
  Au  Au34  1  0.75000000  0.25000000  0.93970900  1
  Au  Au35  1  0.25000000  0.25000000  0.93970900  1
