# generated using pymatgen
data_LiMg
_symmetry_space_group_name_H-M   'P 1'
_cell_length_a   11.06006000
_cell_length_b   3.32615000
_cell_length_c   7.01947344
_cell_angle_alpha   90.00000000
_cell_angle_beta   108.38043948
_cell_angle_gamma   90.00000000
_symmetry_Int_Tables_number   1
_chemical_formula_structural   LiMg
_chemical_formula_sum   'Li6 Mg6'
_cell_volume   245.05445928
_cell_formula_units_Z   6
loop_
 _symmetry_equiv_pos_site_id
 _symmetry_equiv_pos_as_xyz
  1  'x, y, z'
loop_
 _atom_site_type_symbol
 _atom_site_label
 _atom_site_symmetry_multiplicity
 _atom_site_fract_x
 _atom_site_fract_y
 _atom_site_fract_z
 _atom_site_occupancy
  Li  Li0  1  0.96828100  0.00000000  0.94751400  1
  Li  Li1  1  0.63124500  0.00000000  0.26837900  1
  Li  Li2  1  0.98226000  0.00000000  0.44293400  1
  Li  Li3  1  0.46828100  0.50000000  0.94751400  1
  Li  Li4  1  0.13124500  0.50000000  0.26837900  1
  Li  Li5  1  0.48226000  0.50000000  0.44293400  1
  Mg  Mg6  1  0.81028900  0.50000000  0.12662300  1
  Mg  Mg7  1  0.80983500  0.50000000  0.60100100  1
  Mg  Mg8  1  0.63142400  0.00000000  0.78021600  1
  Mg  Mg9  1  0.31028900  0.00000000  0.12662300  1
  Mg  Mg10  1  0.30983500  0.00000000  0.60100100  1
  Mg  Mg11  1  0.13142400  0.50000000  0.78021600  1
