# generated using pymatgen
data_Dy3Fe2Si3
_symmetry_space_group_name_H-M   'P 1'
_cell_length_a   4.07784200
_cell_length_b   10.54846800
_cell_length_c   13.59724900
_cell_angle_alpha   90.00000000
_cell_angle_beta   90.00000000
_cell_angle_gamma   90.00000000
_symmetry_Int_Tables_number   1
_chemical_formula_structural   Dy3Fe2Si3
_chemical_formula_sum   'Dy12 Fe8 Si12'
_cell_volume   584.88547328
_cell_formula_units_Z   4
loop_
 _symmetry_equiv_pos_site_id
 _symmetry_equiv_pos_as_xyz
  1  'x, y, z'
loop_
 _atom_site_type_symbol
 _atom_site_label
 _atom_site_symmetry_multiplicity
 _atom_site_fract_x
 _atom_site_fract_y
 _atom_site_fract_z
 _atom_site_occupancy
  Dy  Dy0  1  0.00000000  0.41969100  0.11198200  1
  Dy  Dy1  1  0.50000000  0.08030900  0.88801800  1
  Dy  Dy2  1  0.50000000  0.08030900  0.61198200  1
  Dy  Dy3  1  0.00000000  0.41969100  0.38801800  1
  Dy  Dy4  1  0.50000000  0.36458700  0.75000000  1
  Dy  Dy5  1  0.00000000  0.13541300  0.25000000  1
  Dy  Dy6  1  0.50000000  0.91969100  0.11198200  1
  Dy  Dy7  1  0.00000000  0.58030900  0.88801800  1
  Dy  Dy8  1  0.00000000  0.58030900  0.61198200  1
  Dy  Dy9  1  0.50000000  0.91969100  0.38801800  1
  Dy  Dy10  1  0.00000000  0.86458700  0.75000000  1
  Dy  Dy11  1  0.50000000  0.63541300  0.25000000  1
  Fe  Fe12  1  0.50000000  0.21547900  0.41956300  1
  Fe  Fe13  1  0.00000000  0.28452100  0.58043700  1
  Fe  Fe14  1  0.00000000  0.28452100  0.91956300  1
  Fe  Fe15  1  0.50000000  0.21547900  0.08043700  1
  Fe  Fe16  1  0.00000000  0.71547900  0.41956300  1
  Fe  Fe17  1  0.50000000  0.78452100  0.58043700  1
  Fe  Fe18  1  0.50000000  0.78452100  0.91956300  1
  Fe  Fe19  1  0.00000000  0.71547900  0.08043700  1
  Si  Si20  1  0.00000000  0.12615500  0.03977400  1
  Si  Si21  1  0.50000000  0.37384500  0.96022600  1
  Si  Si22  1  0.50000000  0.37384500  0.53977400  1
  Si  Si23  1  0.00000000  0.12615500  0.46022600  1
  Si  Si24  1  0.00000000  0.17618600  0.75000000  1
  Si  Si25  1  0.50000000  0.32381400  0.25000000  1
  Si  Si26  1  0.50000000  0.62615500  0.03977400  1
  Si  Si27  1  0.00000000  0.87384500  0.96022600  1
  Si  Si28  1  0.00000000  0.87384500  0.53977400  1
  Si  Si29  1  0.50000000  0.62615500  0.46022600  1
  Si  Si30  1  0.50000000  0.67618600  0.75000000  1
  Si  Si31  1  0.00000000  0.82381400  0.25000000  1
