# generated using pymatgen
data_Hf4Co4Si7
_symmetry_space_group_name_H-M   'P 1'
_cell_length_a   12.86152800
_cell_length_b   12.86152800
_cell_length_c   5.04675800
_cell_angle_alpha   90.00000000
_cell_angle_beta   90.00000000
_cell_angle_gamma   90.00000000
_symmetry_Int_Tables_number   1
_chemical_formula_structural   Hf4Co4Si7
_chemical_formula_sum   'Hf16 Co16 Si28'
_cell_volume   834.82916952
_cell_formula_units_Z   4
loop_
 _symmetry_equiv_pos_site_id
 _symmetry_equiv_pos_as_xyz
  1  'x, y, z'
loop_
 _atom_site_type_symbol
 _atom_site_label
 _atom_site_symmetry_multiplicity
 _atom_site_fract_x
 _atom_site_fract_y
 _atom_site_fract_z
 _atom_site_occupancy
  Hf  Hf0  1  0.63748500  0.63748500  0.50000000  1
  Hf  Hf1  1  0.86251500  0.86251500  0.00000000  1
  Hf  Hf2  1  0.63748500  0.36251500  0.50000000  1
  Hf  Hf3  1  0.86251500  0.13748500  0.00000000  1
  Hf  Hf4  1  0.80362100  0.00000000  0.50000000  1
  Hf  Hf5  1  0.19637900  0.00000000  0.50000000  1
  Hf  Hf6  1  0.50000000  0.69637900  0.00000000  1
  Hf  Hf7  1  0.50000000  0.30362100  0.00000000  1
  Hf  Hf8  1  0.13748500  0.13748500  0.00000000  1
  Hf  Hf9  1  0.36251500  0.36251500  0.50000000  1
  Hf  Hf10  1  0.13748500  0.86251500  0.00000000  1
  Hf  Hf11  1  0.36251500  0.63748500  0.50000000  1
  Hf  Hf12  1  0.30362100  0.50000000  0.00000000  1
  Hf  Hf13  1  0.69637900  0.50000000  0.00000000  1
  Hf  Hf14  1  0.00000000  0.19637900  0.50000000  1
  Hf  Hf15  1  0.00000000  0.80362100  0.50000000  1
  Co  Co16  1  0.35206000  0.85206000  0.75000000  1
  Co  Co17  1  0.64794000  0.14794000  0.75000000  1
  Co  Co18  1  0.64794000  0.85206000  0.25000000  1
  Co  Co19  1  0.35206000  0.14794000  0.25000000  1
  Co  Co20  1  0.35206000  0.85206000  0.25000000  1
  Co  Co21  1  0.64794000  0.14794000  0.25000000  1
  Co  Co22  1  0.35206000  0.14794000  0.75000000  1
  Co  Co23  1  0.64794000  0.85206000  0.75000000  1
  Co  Co24  1  0.85206000  0.35206000  0.25000000  1
  Co  Co25  1  0.14794000  0.64794000  0.25000000  1
  Co  Co26  1  0.14794000  0.35206000  0.75000000  1
  Co  Co27  1  0.85206000  0.64794000  0.75000000  1
  Co  Co28  1  0.85206000  0.35206000  0.75000000  1
  Co  Co29  1  0.14794000  0.64794000  0.75000000  1
  Co  Co30  1  0.85206000  0.64794000  0.25000000  1
  Co  Co31  1  0.14794000  0.35206000  0.25000000  1
  Si  Si32  1  0.78970850  0.78970850  0.50000000  1
  Si  Si33  1  0.71029150  0.71029150  0.00000000  1
  Si  Si34  1  0.78970850  0.21029150  0.50000000  1
  Si  Si35  1  0.71029150  0.28970850  0.00000000  1
  Si  Si36  1  0.59181300  0.00000000  0.50000000  1
  Si  Si37  1  0.40818700  0.00000000  0.50000000  1
  Si  Si38  1  0.50000000  0.90818700  0.00000000  1
  Si  Si39  1  0.50000000  0.09181300  0.00000000  1
  Si  Si40  1  0.00000000  0.00000000  0.25053900  1
  Si  Si41  1  0.00000000  0.00000000  0.74946100  1
  Si  Si42  1  0.30139700  0.00000000  0.00000000  1
  Si  Si43  1  0.69860300  0.00000000  0.00000000  1
  Si  Si44  1  0.50000000  0.19860300  0.50000000  1
  Si  Si45  1  0.50000000  0.80139700  0.50000000  1
  Si  Si46  1  0.28970850  0.28970850  0.00000000  1
  Si  Si47  1  0.21029150  0.21029150  0.50000000  1
  Si  Si48  1  0.28970850  0.71029150  0.00000000  1
  Si  Si49  1  0.21029150  0.78970850  0.50000000  1
  Si  Si50  1  0.09181300  0.50000000  0.00000000  1
  Si  Si51  1  0.90818700  0.50000000  0.00000000  1
  Si  Si52  1  0.00000000  0.40818700  0.50000000  1
  Si  Si53  1  0.00000000  0.59181300  0.50000000  1
  Si  Si54  1  0.50000000  0.50000000  0.75053900  1
  Si  Si55  1  0.50000000  0.50000000  0.24946100  1
  Si  Si56  1  0.80139700  0.50000000  0.50000000  1
  Si  Si57  1  0.19860300  0.50000000  0.50000000  1
  Si  Si58  1  0.00000000  0.69860300  0.00000000  1
  Si  Si59  1  0.00000000  0.30139700  0.00000000  1
