# generated using pymatgen
data_TiSn3
_symmetry_space_group_name_H-M   'P 1'
_cell_length_a   6.28609016
_cell_length_b   6.28609016
_cell_length_c   5.49263100
_cell_angle_alpha   90.00000000
_cell_angle_beta   90.00000000
_cell_angle_gamma   120.00000000
_symmetry_Int_Tables_number   1
_chemical_formula_structural   TiSn3
_chemical_formula_sum   'Ti2 Sn6'
_cell_volume   187.96295621
_cell_formula_units_Z   2
loop_
 _symmetry_equiv_pos_site_id
 _symmetry_equiv_pos_as_xyz
  1  'x, y, z'
loop_
 _atom_site_type_symbol
 _atom_site_label
 _atom_site_symmetry_multiplicity
 _atom_site_fract_x
 _atom_site_fract_y
 _atom_site_fract_z
 _atom_site_occupancy
  Ti  Ti0  1  0.66666667  0.33333333  0.25000000  1
  Ti  Ti1  1  0.33333333  0.66666667  0.75000000  1
  Sn  Sn2  1  0.34172700  0.17086350  0.75000000  1
  Sn  Sn3  1  0.82913650  0.17086350  0.75000000  1
  Sn  Sn4  1  0.82913650  0.65827300  0.75000000  1
  Sn  Sn5  1  0.65827300  0.82913650  0.25000000  1
  Sn  Sn6  1  0.17086350  0.82913650  0.25000000  1
  Sn  Sn7  1  0.17086350  0.34172700  0.25000000  1
