# generated using pymatgen
data_Li(Mg4Al3)4
_symmetry_space_group_name_H-M   'P 1'
_cell_length_a   10.52168800
_cell_length_b   14.79679200
_cell_length_c   9.11609902
_cell_angle_alpha   90.00000000
_cell_angle_beta   125.04561482
_cell_angle_gamma   90.00000000
_symmetry_Int_Tables_number   1
_chemical_formula_structural   Li(Mg4Al3)4
_chemical_formula_sum   'Li2 Mg32 Al24'
_cell_volume   1161.94142901
_cell_formula_units_Z   2
loop_
 _symmetry_equiv_pos_site_id
 _symmetry_equiv_pos_as_xyz
  1  'x, y, z'
loop_
 _atom_site_type_symbol
 _atom_site_label
 _atom_site_symmetry_multiplicity
 _atom_site_fract_x
 _atom_site_fract_y
 _atom_site_fract_z
 _atom_site_occupancy
  Li  Li0  1  0.31596000  0.00000000  0.70910300  1
  Li  Li1  1  0.81596000  0.50000000  0.70910300  1
  Mg  Mg2  1  0.60310200  0.00000000  0.28820700  1
  Mg  Mg3  1  0.00886200  0.00000000  0.65665900  1
  Mg  Mg4  1  0.99926000  0.00000000  0.99867200  1
  Mg  Mg5  1  0.34315000  0.00000000  0.34291900  1
  Mg  Mg6  1  0.53933600  0.85993500  0.99719300  1
  Mg  Mg7  1  0.44220200  0.84332600  0.60194300  1
  Mg  Mg8  1  0.84174100  0.84248700  0.39779100  1
  Mg  Mg9  1  0.82743050  0.82761450  0.00093200  1
  Mg  Mg10  1  0.19896950  0.80199250  0.68540300  1
  Mg  Mg11  1  0.51495800  0.80102800  0.31644500  1
  Mg  Mg12  1  0.51495800  0.19897200  0.31644500  1
  Mg  Mg13  1  0.19896950  0.19800750  0.68540300  1
  Mg  Mg14  1  0.82743050  0.17238550  0.00093200  1
  Mg  Mg15  1  0.84174100  0.15751300  0.39779100  1
  Mg  Mg16  1  0.44220200  0.15667400  0.60194300  1
  Mg  Mg17  1  0.53933600  0.14006500  0.99719300  1
  Mg  Mg18  1  0.10310200  0.50000000  0.28820700  1
  Mg  Mg19  1  0.50886200  0.50000000  0.65665900  1
  Mg  Mg20  1  0.49926000  0.50000000  0.99867200  1
  Mg  Mg21  1  0.84315000  0.50000000  0.34291900  1
  Mg  Mg22  1  0.03933600  0.35993500  0.99719300  1
  Mg  Mg23  1  0.94220200  0.34332600  0.60194300  1
  Mg  Mg24  1  0.34174100  0.34248700  0.39779100  1
  Mg  Mg25  1  0.32743050  0.32761450  0.00093200  1
  Mg  Mg26  1  0.69896950  0.30199250  0.68540300  1
  Mg  Mg27  1  0.01495800  0.30102800  0.31644500  1
  Mg  Mg28  1  0.01495800  0.69897200  0.31644500  1
  Mg  Mg29  1  0.69896950  0.69800750  0.68540300  1
  Mg  Mg30  1  0.32743050  0.67238550  0.00093200  1
  Mg  Mg31  1  0.34174100  0.65751300  0.39779100  1
  Mg  Mg32  1  0.94220200  0.65667400  0.60194300  1
  Mg  Mg33  1  0.03933600  0.64006500  0.99719300  1
  Al  Al34  1  0.81501700  0.00000000  0.18000300  1
  Al  Al35  1  0.63122600  0.00000000  0.81771600  1
  Al  Al36  1  0.27626400  0.90917600  0.00128000  1
  Al  Al37  1  0.09416750  0.90760850  0.36865600  1
  Al  Al38  1  0.72712450  0.90723650  0.63462200  1
  Al  Al39  1  0.49767000  0.31643500  0.81517400  1
  Al  Al40  1  0.68185750  0.31631550  0.18392200  1
  Al  Al41  1  0.68185750  0.68368450  0.18392200  1
  Al  Al42  1  0.49767000  0.68356500  0.81517400  1
  Al  Al43  1  0.72712450  0.09276350  0.63462200  1
  Al  Al44  1  0.09416750  0.09239150  0.36865600  1
  Al  Al45  1  0.27626400  0.09082400  0.00128000  1
  Al  Al46  1  0.31501700  0.50000000  0.18000300  1
  Al  Al47  1  0.13122600  0.50000000  0.81771600  1
  Al  Al48  1  0.77626400  0.40917600  0.00128000  1
  Al  Al49  1  0.59416750  0.40760850  0.36865600  1
  Al  Al50  1  0.22712450  0.40723650  0.63462200  1
  Al  Al51  1  0.99767000  0.81643500  0.81517400  1
  Al  Al52  1  0.18185750  0.81631550  0.18392200  1
  Al  Al53  1  0.18185750  0.18368450  0.18392200  1
  Al  Al54  1  0.99767000  0.18356500  0.81517400  1
  Al  Al55  1  0.22712450  0.59276350  0.63462200  1
  Al  Al56  1  0.59416750  0.59239150  0.36865600  1
  Al  Al57  1  0.77626400  0.59082400  0.00128000  1
