# generated using pymatgen
data_La3Sn4
_symmetry_space_group_name_H-M   'P 1'
_cell_length_a   4.56876600
_cell_length_b   12.01429000
_cell_length_c   16.03025900
_cell_angle_alpha   90.00000000
_cell_angle_beta   90.00000000
_cell_angle_gamma   90.00000000
_symmetry_Int_Tables_number   1
_chemical_formula_structural   La3Sn4
_chemical_formula_sum   'La12 Sn16'
_cell_volume   879.90860568
_cell_formula_units_Z   4
loop_
 _symmetry_equiv_pos_site_id
 _symmetry_equiv_pos_as_xyz
  1  'x, y, z'
loop_
 _atom_site_type_symbol
 _atom_site_label
 _atom_site_symmetry_multiplicity
 _atom_site_fract_x
 _atom_site_fract_y
 _atom_site_fract_z
 _atom_site_occupancy
  La  La0  1  0.00000000  0.32820000  0.59755700  1
  La  La1  1  0.00000000  0.04271500  0.75000000  1
  La  La2  1  0.00000000  0.32820000  0.90244300  1
  La  La3  1  0.50000000  0.17180000  0.09755700  1
  La  La4  1  0.50000000  0.45728500  0.25000000  1
  La  La5  1  0.50000000  0.17180000  0.40244300  1
  La  La6  1  0.50000000  0.82820000  0.59755700  1
  La  La7  1  0.50000000  0.54271500  0.75000000  1
  La  La8  1  0.50000000  0.82820000  0.90244300  1
  La  La9  1  0.00000000  0.67180000  0.09755700  1
  La  La10  1  0.00000000  0.95728500  0.25000000  1
  La  La11  1  0.00000000  0.67180000  0.40244300  1
  Sn  Sn12  1  0.00000000  0.00000000  0.50000000  1
  Sn  Sn13  1  0.50000000  0.11632300  0.60702400  1
  Sn  Sn14  1  0.50000000  0.27279000  0.75000000  1
  Sn  Sn15  1  0.50000000  0.11632300  0.89297600  1
  Sn  Sn16  1  0.00000000  0.00000000  0.00000000  1
  Sn  Sn17  1  0.00000000  0.38367700  0.10702400  1
  Sn  Sn18  1  0.00000000  0.22721000  0.25000000  1
  Sn  Sn19  1  0.00000000  0.38367700  0.39297600  1
  Sn  Sn20  1  0.50000000  0.50000000  0.50000000  1
  Sn  Sn21  1  0.00000000  0.61632300  0.60702400  1
  Sn  Sn22  1  0.00000000  0.77279000  0.75000000  1
  Sn  Sn23  1  0.00000000  0.61632300  0.89297600  1
  Sn  Sn24  1  0.50000000  0.50000000  0.00000000  1
  Sn  Sn25  1  0.50000000  0.88367700  0.10702400  1
  Sn  Sn26  1  0.50000000  0.72721000  0.25000000  1
  Sn  Sn27  1  0.50000000  0.88367700  0.39297600  1
