# generated using pymatgen
data_CdNi
_symmetry_space_group_name_H-M   'P 1'
_cell_length_a   11.45052800
_cell_length_b   11.45052800
_cell_length_c   11.45052800
_cell_angle_alpha   90.00000000
_cell_angle_beta   90.00000000
_cell_angle_gamma   90.00000000
_symmetry_Int_Tables_number   1
_chemical_formula_structural   CdNi
_chemical_formula_sum   'Cd48 Ni48'
_cell_volume   1501.33130094
_cell_formula_units_Z   48
loop_
 _symmetry_equiv_pos_site_id
 _symmetry_equiv_pos_as_xyz
  1  'x, y, z'
loop_
 _atom_site_type_symbol
 _atom_site_label
 _atom_site_symmetry_multiplicity
 _atom_site_fract_x
 _atom_site_fract_y
 _atom_site_fract_z
 _atom_site_occupancy
  Cd  Cd0  1  0.00000000  0.00000000  0.30064900  1
  Cd  Cd1  1  0.50000000  0.00000000  0.19935100  1
  Cd  Cd2  1  0.50000000  0.30064900  0.50000000  1
  Cd  Cd3  1  0.50000000  0.69935100  0.50000000  1
  Cd  Cd4  1  0.80064900  0.00000000  0.50000000  1
  Cd  Cd5  1  0.19935100  0.00000000  0.50000000  1
  Cd  Cd6  1  0.25000000  0.75000000  0.44935100  1
  Cd  Cd7  1  0.25000000  0.75000000  0.05064900  1
  Cd  Cd8  1  0.25000000  0.94935100  0.25000000  1
  Cd  Cd9  1  0.25000000  0.55064900  0.25000000  1
  Cd  Cd10  1  0.44935100  0.75000000  0.25000000  1
  Cd  Cd11  1  0.05064900  0.75000000  0.25000000  1
  Cd  Cd12  1  0.00000000  0.50000000  0.80064900  1
  Cd  Cd13  1  0.50000000  0.50000000  0.69935100  1
  Cd  Cd14  1  0.50000000  0.80064900  0.00000000  1
  Cd  Cd15  1  0.50000000  0.19935100  0.00000000  1
  Cd  Cd16  1  0.80064900  0.50000000  0.00000000  1
  Cd  Cd17  1  0.19935100  0.50000000  0.00000000  1
  Cd  Cd18  1  0.25000000  0.25000000  0.94935100  1
  Cd  Cd19  1  0.25000000  0.25000000  0.55064900  1
  Cd  Cd20  1  0.25000000  0.44935100  0.75000000  1
  Cd  Cd21  1  0.25000000  0.05064900  0.75000000  1
  Cd  Cd22  1  0.44935100  0.25000000  0.75000000  1
  Cd  Cd23  1  0.05064900  0.25000000  0.75000000  1
  Cd  Cd24  1  0.50000000  0.00000000  0.80064900  1
  Cd  Cd25  1  0.00000000  0.00000000  0.69935100  1
  Cd  Cd26  1  0.00000000  0.30064900  0.00000000  1
  Cd  Cd27  1  0.00000000  0.69935100  0.00000000  1
  Cd  Cd28  1  0.30064900  0.00000000  0.00000000  1
  Cd  Cd29  1  0.69935100  0.00000000  0.00000000  1
  Cd  Cd30  1  0.75000000  0.75000000  0.94935100  1
  Cd  Cd31  1  0.75000000  0.75000000  0.55064900  1
  Cd  Cd32  1  0.75000000  0.94935100  0.75000000  1
  Cd  Cd33  1  0.75000000  0.55064900  0.75000000  1
  Cd  Cd34  1  0.94935100  0.75000000  0.75000000  1
  Cd  Cd35  1  0.55064900  0.75000000  0.75000000  1
  Cd  Cd36  1  0.50000000  0.50000000  0.30064900  1
  Cd  Cd37  1  0.00000000  0.50000000  0.19935100  1
  Cd  Cd38  1  0.00000000  0.80064900  0.50000000  1
  Cd  Cd39  1  0.00000000  0.19935100  0.50000000  1
  Cd  Cd40  1  0.30064900  0.50000000  0.50000000  1
  Cd  Cd41  1  0.69935100  0.50000000  0.50000000  1
  Cd  Cd42  1  0.75000000  0.25000000  0.44935100  1
  Cd  Cd43  1  0.75000000  0.25000000  0.05064900  1
  Cd  Cd44  1  0.75000000  0.44935100  0.25000000  1
  Cd  Cd45  1  0.75000000  0.05064900  0.25000000  1
  Cd  Cd46  1  0.94935100  0.25000000  0.25000000  1
  Cd  Cd47  1  0.55064900  0.25000000  0.25000000  1
  Ni  Ni48  1  0.62500000  0.87500000  0.37500000  1
  Ni  Ni49  1  0.37500000  0.12500000  0.37500000  1
  Ni  Ni50  1  0.87500000  0.87500000  0.12500000  1
  Ni  Ni51  1  0.12500000  0.12500000  0.12500000  1
  Ni  Ni52  1  0.92194667  0.07805333  0.07805333  1
  Ni  Ni53  1  0.07805333  0.92194667  0.07805333  1
  Ni  Ni54  1  0.57805333  0.07805333  0.42194667  1
  Ni  Ni55  1  0.42194667  0.92194667  0.42194667  1
  Ni  Ni56  1  0.32805333  0.17194667  0.17194667  1
  Ni  Ni57  1  0.17194667  0.32805333  0.17194667  1
  Ni  Ni58  1  0.17194667  0.17194667  0.32805333  1
  Ni  Ni59  1  0.32805333  0.32805333  0.32805333  1
  Ni  Ni60  1  0.62500000  0.37500000  0.87500000  1
  Ni  Ni61  1  0.37500000  0.62500000  0.87500000  1
  Ni  Ni62  1  0.87500000  0.37500000  0.62500000  1
  Ni  Ni63  1  0.12500000  0.62500000  0.62500000  1
  Ni  Ni64  1  0.92194667  0.57805333  0.57805333  1
  Ni  Ni65  1  0.07805333  0.42194667  0.57805333  1
  Ni  Ni66  1  0.57805333  0.57805333  0.92194667  1
  Ni  Ni67  1  0.42194667  0.42194667  0.92194667  1
  Ni  Ni68  1  0.32805333  0.67194667  0.67194667  1
  Ni  Ni69  1  0.17194667  0.82805333  0.67194667  1
  Ni  Ni70  1  0.17194667  0.67194667  0.82805333  1
  Ni  Ni71  1  0.32805333  0.82805333  0.82805333  1
  Ni  Ni72  1  0.12500000  0.87500000  0.87500000  1
  Ni  Ni73  1  0.87500000  0.12500000  0.87500000  1
  Ni  Ni74  1  0.37500000  0.87500000  0.62500000  1
  Ni  Ni75  1  0.62500000  0.12500000  0.62500000  1
  Ni  Ni76  1  0.42194667  0.07805333  0.57805333  1
  Ni  Ni77  1  0.57805333  0.92194667  0.57805333  1
  Ni  Ni78  1  0.07805333  0.07805333  0.92194667  1
  Ni  Ni79  1  0.92194667  0.92194667  0.92194667  1
  Ni  Ni80  1  0.82805333  0.17194667  0.67194667  1
  Ni  Ni81  1  0.67194667  0.32805333  0.67194667  1
  Ni  Ni82  1  0.67194667  0.17194667  0.82805333  1
  Ni  Ni83  1  0.82805333  0.32805333  0.82805333  1
  Ni  Ni84  1  0.12500000  0.37500000  0.37500000  1
  Ni  Ni85  1  0.87500000  0.62500000  0.37500000  1
  Ni  Ni86  1  0.37500000  0.37500000  0.12500000  1
  Ni  Ni87  1  0.62500000  0.62500000  0.12500000  1
  Ni  Ni88  1  0.42194667  0.57805333  0.07805333  1
  Ni  Ni89  1  0.57805333  0.42194667  0.07805333  1
  Ni  Ni90  1  0.07805333  0.57805333  0.42194667  1
  Ni  Ni91  1  0.92194667  0.42194667  0.42194667  1
  Ni  Ni92  1  0.82805333  0.67194667  0.17194667  1
  Ni  Ni93  1  0.67194667  0.82805333  0.17194667  1
  Ni  Ni94  1  0.67194667  0.67194667  0.32805333  1
  Ni  Ni95  1  0.82805333  0.82805333  0.32805333  1
