# generated using pymatgen
data_Tm2Co3Si5
_symmetry_space_group_name_H-M   'P 1'
_cell_length_a   5.47967000
_cell_length_b   9.49738200
_cell_length_c   11.21057000
_cell_angle_alpha   90.00000000
_cell_angle_beta   90.00000000
_cell_angle_gamma   90.00000000
_symmetry_Int_Tables_number   1
_chemical_formula_structural   Tm2Co3Si5
_chemical_formula_sum   'Tm8 Co12 Si20'
_cell_volume   583.42630474
_cell_formula_units_Z   4
loop_
 _symmetry_equiv_pos_site_id
 _symmetry_equiv_pos_as_xyz
  1  'x, y, z'
loop_
 _atom_site_type_symbol
 _atom_site_label
 _atom_site_symmetry_multiplicity
 _atom_site_fract_x
 _atom_site_fract_y
 _atom_site_fract_z
 _atom_site_occupancy
  Tm  Tm0  1  0.50000000  0.76741800  0.86480400  1
  Tm  Tm1  1  0.00000000  0.23258200  0.86480400  1
  Tm  Tm2  1  0.00000000  0.76741800  0.13519600  1
  Tm  Tm3  1  0.50000000  0.23258200  0.13519600  1
  Tm  Tm4  1  0.00000000  0.26741800  0.36480400  1
  Tm  Tm5  1  0.50000000  0.73258200  0.36480400  1
  Tm  Tm6  1  0.50000000  0.26741800  0.63519600  1
  Tm  Tm7  1  0.00000000  0.73258200  0.63519600  1
  Co  Co8  1  0.00000000  0.60872700  0.36136400  1
  Co  Co9  1  0.00000000  0.39127300  0.63863600  1
  Co  Co10  1  0.75000000  0.50000000  0.00000000  1
  Co  Co11  1  0.25000000  0.50000000  0.00000000  1
  Co  Co12  1  0.50000000  0.39127300  0.36136400  1
  Co  Co13  1  0.50000000  0.60872700  0.63863600  1
  Co  Co14  1  0.50000000  0.10872700  0.86136400  1
  Co  Co15  1  0.50000000  0.89127300  0.13863600  1
  Co  Co16  1  0.25000000  0.00000000  0.50000000  1
  Co  Co17  1  0.75000000  0.00000000  0.50000000  1
  Co  Co18  1  0.00000000  0.89127300  0.86136400  1
  Co  Co19  1  0.00000000  0.10872700  0.13863600  1
  Si  Si20  1  0.75000000  0.50000000  0.22516600  1
  Si  Si21  1  0.75000000  0.50000000  0.77483400  1
  Si  Si22  1  0.75000000  0.00000000  0.00000000  1
  Si  Si23  1  0.50000000  0.66000100  0.10013900  1
  Si  Si24  1  0.50000000  0.33999900  0.89986100  1
  Si  Si25  1  0.00000000  0.66000100  0.89986100  1
  Si  Si26  1  0.25000000  0.00000000  0.00000000  1
  Si  Si27  1  0.00000000  0.33999900  0.10013900  1
  Si  Si28  1  0.25000000  0.50000000  0.77483400  1
  Si  Si29  1  0.25000000  0.50000000  0.22516600  1
  Si  Si30  1  0.25000000  0.00000000  0.72516600  1
  Si  Si31  1  0.25000000  0.00000000  0.27483400  1
  Si  Si32  1  0.25000000  0.50000000  0.50000000  1
  Si  Si33  1  0.00000000  0.16000100  0.60013900  1
  Si  Si34  1  0.00000000  0.83999900  0.39986100  1
  Si  Si35  1  0.50000000  0.16000100  0.39986100  1
  Si  Si36  1  0.75000000  0.50000000  0.50000000  1
  Si  Si37  1  0.50000000  0.83999900  0.60013900  1
  Si  Si38  1  0.75000000  0.00000000  0.27483400  1
  Si  Si39  1  0.75000000  0.00000000  0.72516600  1
