# generated using pymatgen
data_HfFe2
_symmetry_space_group_name_H-M   'P 1'
_cell_length_a   4.94598197
_cell_length_b   4.94598197
_cell_length_c   8.04136200
_cell_angle_alpha   90.00000000
_cell_angle_beta   90.00000000
_cell_angle_gamma   120.00000000
_symmetry_Int_Tables_number   1
_chemical_formula_structural   HfFe2
_chemical_formula_sum   'Hf4 Fe8'
_cell_volume   170.35908685
_cell_formula_units_Z   4
loop_
 _symmetry_equiv_pos_site_id
 _symmetry_equiv_pos_as_xyz
  1  'x, y, z'
loop_
 _atom_site_type_symbol
 _atom_site_label
 _atom_site_symmetry_multiplicity
 _atom_site_fract_x
 _atom_site_fract_y
 _atom_site_fract_z
 _atom_site_occupancy
  Hf  Hf0  1  0.33333333  0.66666667  0.06254600  1
  Hf  Hf1  1  0.66666667  0.33333333  0.93745400  1
  Hf  Hf2  1  0.66666667  0.33333333  0.56254600  1
  Hf  Hf3  1  0.33333333  0.66666667  0.43745400  1
  Fe  Fe4  1  0.83151850  0.66303700  0.25000000  1
  Fe  Fe5  1  0.16848150  0.33696300  0.75000000  1
  Fe  Fe6  1  0.33696300  0.16848150  0.25000000  1
  Fe  Fe7  1  0.66303700  0.83151850  0.75000000  1
  Fe  Fe8  1  0.83151850  0.16848150  0.25000000  1
  Fe  Fe9  1  0.16848150  0.83151850  0.75000000  1
  Fe  Fe10  1  0.00000000  0.00000000  0.00000000  1
  Fe  Fe11  1  0.00000000  0.00000000  0.50000000  1
