# generated using pymatgen
data_Ba3NaIrO6
_symmetry_space_group_name_H-M   'P 1'
_cell_length_a   10.25392782
_cell_length_b   10.25392782
_cell_length_c   12.07229613
_cell_angle_alpha   90.00000000
_cell_angle_beta   90.00000000
_cell_angle_gamma   120.00000000
_symmetry_Int_Tables_number   1
_chemical_formula_structural   Ba3NaIrO6
_chemical_formula_sum   'Ba18 Na6 Ir6 O36'
_cell_volume   1099.26151526
_cell_formula_units_Z   6
loop_
 _symmetry_equiv_pos_site_id
 _symmetry_equiv_pos_as_xyz
  1  'x, y, z'
loop_
 _atom_site_type_symbol
 _atom_site_label
 _atom_site_symmetry_multiplicity
 _atom_site_fract_x
 _atom_site_fract_y
 _atom_site_fract_z
 _atom_site_occupancy
  Ba  Ba0  1  0.97714833  0.66666667  0.41666667  1
  Ba  Ba1  1  0.33333333  0.31048167  0.41666667  1
  Ba  Ba2  1  0.68951833  0.02285167  0.41666667  1
  Ba  Ba3  1  0.02285167  0.33333333  0.58333333  1
  Ba  Ba4  1  0.66666667  0.68951833  0.58333333  1
  Ba  Ba5  1  0.31048167  0.97714833  0.58333333  1
  Ba  Ba6  1  0.64381500  0.00000000  0.75000000  1
  Ba  Ba7  1  0.00000000  0.64381500  0.75000000  1
  Ba  Ba8  1  0.35618500  0.35618500  0.75000000  1
  Ba  Ba9  1  0.68951833  0.66666667  0.91666667  1
  Ba  Ba10  1  0.33333333  0.02285167  0.91666667  1
  Ba  Ba11  1  0.97714833  0.31048167  0.91666667  1
  Ba  Ba12  1  0.31048167  0.33333333  0.08333333  1
  Ba  Ba13  1  0.66666667  0.97714833  0.08333333  1
  Ba  Ba14  1  0.02285167  0.68951833  0.08333333  1
  Ba  Ba15  1  0.35618500  0.00000000  0.25000000  1
  Ba  Ba16  1  0.00000000  0.35618500  0.25000000  1
  Ba  Ba17  1  0.64381500  0.64381500  0.25000000  1
  Na  Na18  1  0.00000000  0.00000000  0.25000000  1
  Na  Na19  1  0.00000000  0.00000000  0.75000000  1
  Na  Na20  1  0.66666667  0.33333333  0.58333333  1
  Na  Na21  1  0.66666667  0.33333333  0.08333333  1
  Na  Na22  1  0.33333333  0.66666667  0.91666667  1
  Na  Na23  1  0.33333333  0.66666667  0.41666667  1
  Ir  Ir24  1  0.00000000  0.00000000  0.00000000  1
  Ir  Ir25  1  0.00000000  0.00000000  0.50000000  1
  Ir  Ir26  1  0.66666667  0.33333333  0.33333333  1
  Ir  Ir27  1  0.66666667  0.33333333  0.83333333  1
  Ir  Ir28  1  0.33333333  0.66666667  0.66666667  1
  Ir  Ir29  1  0.33333333  0.66666667  0.16666667  1
  O  O30  1  0.16741067  0.15021533  0.59898233  1
  O  O31  1  0.84978467  0.01719533  0.59898233  1
  O  O32  1  0.98280467  0.83258933  0.59898233  1
  O  O33  1  0.35052867  0.51645133  0.56768433  1
  O  O34  1  0.48354867  0.83407733  0.56768433  1
  O  O35  1  0.16592267  0.64947133  0.56768433  1
  O  O36  1  0.83258933  0.84978467  0.40101767  1
  O  O37  1  0.15021533  0.98280467  0.40101767  1
  O  O38  1  0.01719533  0.16741067  0.40101767  1
  O  O39  1  0.64947133  0.48354867  0.43231567  1
  O  O40  1  0.83407733  0.35052867  0.43231567  1
  O  O41  1  0.51645133  0.16592267  0.43231567  1
  O  O42  1  0.83407733  0.48354867  0.93231567  1
  O  O43  1  0.51645133  0.35052867  0.93231567  1
  O  O44  1  0.64947133  0.16592267  0.93231567  1
  O  O45  1  0.01719533  0.84978467  0.90101767  1
  O  O46  1  0.15021533  0.16741067  0.90101767  1
  O  O47  1  0.83258933  0.98280467  0.90101767  1
  O  O48  1  0.49925600  0.18311800  0.73435100  1
  O  O49  1  0.81688200  0.31613800  0.73435100  1
  O  O50  1  0.68386200  0.50074400  0.73435100  1
  O  O51  1  0.31613800  0.81688200  0.76564900  1
  O  O52  1  0.50074400  0.68386200  0.76564900  1
  O  O53  1  0.18311800  0.49925600  0.76564900  1
  O  O54  1  0.50074400  0.81688200  0.26564900  1
  O  O55  1  0.18311800  0.68386200  0.26564900  1
  O  O56  1  0.31613800  0.49925600  0.26564900  1
  O  O57  1  0.68386200  0.18311800  0.23435100  1
  O  O58  1  0.81688200  0.50074400  0.23435100  1
  O  O59  1  0.49925600  0.31613800  0.23435100  1
  O  O60  1  0.16592267  0.51645133  0.06768433  1
  O  O61  1  0.48354867  0.64947133  0.06768433  1
  O  O62  1  0.35052867  0.83407733  0.06768433  1
  O  O63  1  0.98280467  0.15021533  0.09898233  1
  O  O64  1  0.16741067  0.01719533  0.09898233  1
  O  O65  1  0.84978467  0.83258933  0.09898233  1
