# generated using pymatgen
data_LaTcN3
_symmetry_space_group_name_H-M   'P 1'
_cell_length_a   10.78843800
_cell_length_b   10.25480000
_cell_length_c   6.27409460
_cell_angle_alpha   90.00000000
_cell_angle_beta   108.27719227
_cell_angle_gamma   90.00000000
_symmetry_Int_Tables_number   1
_chemical_formula_structural   LaTcN3
_chemical_formula_sum   'La8 Tc8 N24'
_cell_volume   659.10536357
_cell_formula_units_Z   8
loop_
 _symmetry_equiv_pos_site_id
 _symmetry_equiv_pos_as_xyz
  1  'x, y, z'
loop_
 _atom_site_type_symbol
 _atom_site_label
 _atom_site_symmetry_multiplicity
 _atom_site_fract_x
 _atom_site_fract_y
 _atom_site_fract_z
 _atom_site_occupancy
  La  La0  1  0.00000000  0.09532000  0.75000000  1
  La  La1  1  0.00000000  0.67751000  0.75000000  1
  La  La2  1  0.00000000  0.32249000  0.25000000  1
  La  La3  1  0.00000000  0.90468000  0.25000000  1
  La  La4  1  0.50000000  0.59532000  0.75000000  1
  La  La5  1  0.50000000  0.17751000  0.75000000  1
  La  La6  1  0.50000000  0.82249000  0.25000000  1
  La  La7  1  0.50000000  0.40468000  0.25000000  1
  Tc  Tc8  1  0.20891000  0.41053000  0.74970000  1
  Tc  Tc9  1  0.79109000  0.41053000  0.75030000  1
  Tc  Tc10  1  0.20891000  0.58947000  0.24970000  1
  Tc  Tc11  1  0.79109000  0.58947000  0.25030000  1
  Tc  Tc12  1  0.70891000  0.91053000  0.74970000  1
  Tc  Tc13  1  0.29109000  0.91053000  0.75030000  1
  Tc  Tc14  1  0.70891000  0.08947000  0.24970000  1
  Tc  Tc15  1  0.29109000  0.08947000  0.25030000  1
  N  N16  1  0.38354000  0.61505000  0.33966000  1
  N  N17  1  0.12015000  0.73678000  0.14241000  1
  N  N18  1  0.15414000  0.48486000  0.98608000  1
  N  N19  1  0.38354000  0.38495000  0.83966000  1
  N  N20  1  0.87985000  0.73678000  0.35759000  1
  N  N21  1  0.15414000  0.51514000  0.48608000  1
  N  N22  1  0.84586000  0.48486000  0.51392000  1
  N  N23  1  0.87985000  0.26322000  0.85759000  1
  N  N24  1  0.12015000  0.26322000  0.64241000  1
  N  N25  1  0.84586000  0.51514000  0.01392000  1
  N  N26  1  0.61646000  0.38495000  0.66034000  1
  N  N27  1  0.61646000  0.61505000  0.16034000  1
  N  N28  1  0.88354000  0.11505000  0.33966000  1
  N  N29  1  0.62015000  0.23678000  0.14241000  1
  N  N30  1  0.65414000  0.98486000  0.98608000  1
  N  N31  1  0.88354000  0.88495000  0.83966000  1
  N  N32  1  0.37985000  0.23678000  0.35759000  1
  N  N33  1  0.65414000  0.01514000  0.48608000  1
  N  N34  1  0.34586000  0.98486000  0.51392000  1
  N  N35  1  0.37985000  0.76322000  0.85759000  1
  N  N36  1  0.62015000  0.76322000  0.64241000  1
  N  N37  1  0.34586000  0.01514000  0.01392000  1
  N  N38  1  0.11646000  0.88495000  0.66034000  1
  N  N39  1  0.11646000  0.11505000  0.16034000  1
