# generated using pymatgen
data_Hf(VH2)2
_symmetry_space_group_name_H-M   'P 1'
_cell_length_a   5.39937800
_cell_length_b   5.39937800
_cell_length_c   7.89523200
_cell_angle_alpha   90.00000000
_cell_angle_beta   90.00000000
_cell_angle_gamma   90.00000000
_symmetry_Int_Tables_number   1
_chemical_formula_structural   Hf(VH2)2
_chemical_formula_sum   'Hf4 V8 H16'
_cell_volume   230.17193116
_cell_formula_units_Z   4
loop_
 _symmetry_equiv_pos_site_id
 _symmetry_equiv_pos_as_xyz
  1  'x, y, z'
loop_
 _atom_site_type_symbol
 _atom_site_label
 _atom_site_symmetry_multiplicity
 _atom_site_fract_x
 _atom_site_fract_y
 _atom_site_fract_z
 _atom_site_occupancy
  Hf  Hf0  1  0.00000000  0.00000000  0.00000000  1
  Hf  Hf1  1  0.00000000  0.50000000  0.25000000  1
  Hf  Hf2  1  0.50000000  0.50000000  0.50000000  1
  Hf  Hf3  1  0.50000000  0.00000000  0.75000000  1
  V  V4  1  0.50000000  0.25000000  0.12500000  1
  V  V5  1  0.50000000  0.75000000  0.12500000  1
  V  V6  1  0.75000000  0.00000000  0.37500000  1
  V  V7  1  0.25000000  0.00000000  0.37500000  1
  V  V8  1  0.00000000  0.75000000  0.62500000  1
  V  V9  1  0.00000000  0.25000000  0.62500000  1
  V  V10  1  0.25000000  0.50000000  0.87500000  1
  V  V11  1  0.75000000  0.50000000  0.87500000  1
  H  H12  1  0.68127250  0.31765450  0.31113750  1
  H  H13  1  0.18234550  0.18127250  0.18886250  1
  H  H14  1  0.18127250  0.31765450  0.43886250  1
  H  H15  1  0.81765450  0.81872750  0.18886250  1
  H  H16  1  0.18234550  0.68127250  0.06113750  1
  H  H17  1  0.31872750  0.68234550  0.31113750  1
  H  H18  1  0.81765450  0.31872750  0.06113750  1
  H  H19  1  0.81872750  0.68234550  0.43886250  1
  H  H20  1  0.18127250  0.81765450  0.81113750  1
  H  H21  1  0.68234550  0.68127250  0.68886250  1
  H  H22  1  0.68127250  0.81765450  0.93886250  1
  H  H23  1  0.31765450  0.31872750  0.68886250  1
  H  H24  1  0.68234550  0.18127250  0.56113750  1
  H  H25  1  0.81872750  0.18234550  0.81113750  1
  H  H26  1  0.31765450  0.81872750  0.56113750  1
  H  H27  1  0.31872750  0.18234550  0.93886250  1
