# generated using pymatgen
data_NdNi
_symmetry_space_group_name_H-M   'P 1'
_cell_length_a   3.80775400
_cell_length_b   10.59670800
_cell_length_c   4.30519000
_cell_angle_alpha   90.00000000
_cell_angle_beta   90.00000000
_cell_angle_gamma   90.00000000
_symmetry_Int_Tables_number   1
_chemical_formula_structural   NdNi
_chemical_formula_sum   'Nd4 Ni4'
_cell_volume   173.71294100
_cell_formula_units_Z   4
loop_
 _symmetry_equiv_pos_site_id
 _symmetry_equiv_pos_as_xyz
  1  'x, y, z'
loop_
 _atom_site_type_symbol
 _atom_site_label
 _atom_site_symmetry_multiplicity
 _atom_site_fract_x
 _atom_site_fract_y
 _atom_site_fract_z
 _atom_site_occupancy
  Nd  Nd0  1  0.50000000  0.63777800  0.75000000  1
  Nd  Nd1  1  0.00000000  0.86222200  0.25000000  1
  Nd  Nd2  1  0.00000000  0.13777800  0.75000000  1
  Nd  Nd3  1  0.50000000  0.36222200  0.25000000  1
  Ni  Ni4  1  0.50000000  0.92662000  0.75000000  1
  Ni  Ni5  1  0.00000000  0.57338000  0.25000000  1
  Ni  Ni6  1  0.00000000  0.42662000  0.75000000  1
  Ni  Ni7  1  0.50000000  0.07338000  0.25000000  1
