# generated using pymatgen
data_Th(Mg4Al3)4
_symmetry_space_group_name_H-M   'P 1'
_cell_length_a   15.19109712
_cell_length_b   15.19109712
_cell_length_c   8.96091599
_cell_angle_alpha   90.00000000
_cell_angle_beta   90.00000000
_cell_angle_gamma   120.00000000
_symmetry_Int_Tables_number   1
_chemical_formula_structural   Th(Mg4Al3)4
_chemical_formula_sum   'Th3 Mg48 Al36'
_cell_volume   1790.85868666
_cell_formula_units_Z   3
loop_
 _symmetry_equiv_pos_site_id
 _symmetry_equiv_pos_as_xyz
  1  'x, y, z'
loop_
 _atom_site_type_symbol
 _atom_site_label
 _atom_site_symmetry_multiplicity
 _atom_site_fract_x
 _atom_site_fract_y
 _atom_site_fract_z
 _atom_site_occupancy
  Th  Th0  1  0.00000000  0.00000000  0.37264200  1
  Th  Th1  1  0.66666667  0.33333333  0.70597533  1
  Th  Th2  1  0.33333333  0.66666667  0.03930867  1
  Mg  Mg3  1  0.11419767  0.22839533  0.88172133  1
  Mg  Mg4  1  0.19929067  0.39858133  0.11705333  1
  Mg  Mg5  1  0.11180233  0.22360467  0.50222367  1
  Mg  Mg6  1  0.00000000  0.00000000  0.99458200  1
  Mg  Mg7  1  0.32782800  0.35966000  0.36128100  1
  Mg  Mg8  1  0.30700667  0.30150133  0.69461433  1
  Mg  Mg9  1  0.11180233  0.88819767  0.50222367  1
  Mg  Mg10  1  0.11419767  0.88580233  0.88172133  1
  Mg  Mg11  1  0.36516533  0.33883867  0.02794767  1
  Mg  Mg12  1  0.26808533  0.13404267  0.45038667  1
  Mg  Mg13  1  0.19929067  0.80070933  0.11705333  1
  Mg  Mg14  1  0.30700667  0.00550533  0.69461433  1
  Mg  Mg15  1  0.43827133  0.21913567  0.21505467  1
  Mg  Mg16  1  0.44306200  0.22153100  0.83555700  1
  Mg  Mg17  1  0.32782800  0.96816800  0.36128100  1
  Mg  Mg18  1  0.36516533  0.02632667  0.02794767  1
  Mg  Mg19  1  0.78086433  0.56172867  0.21505467  1
  Mg  Mg20  1  0.86595733  0.73191467  0.45038667  1
  Mg  Mg21  1  0.77846900  0.55693800  0.83555700  1
  Mg  Mg22  1  0.66666667  0.33333333  0.32791533  1
  Mg  Mg23  1  0.99449467  0.69299333  0.69461433  1
  Mg  Mg24  1  0.97367333  0.63483467  0.02794767  1
  Mg  Mg25  1  0.77846900  0.22153100  0.83555700  1
  Mg  Mg26  1  0.78086433  0.21913567  0.21505467  1
  Mg  Mg27  1  0.03183200  0.67217200  0.36128100  1
  Mg  Mg28  1  0.93475200  0.46737600  0.78372000  1
  Mg  Mg29  1  0.86595733  0.13404267  0.45038667  1
  Mg  Mg30  1  0.97367333  0.33883867  0.02794767  1
  Mg  Mg31  1  0.10493800  0.55246900  0.54838800  1
  Mg  Mg32  1  0.10972867  0.55486433  0.16889033  1
  Mg  Mg33  1  0.99449467  0.30150133  0.69461433  1
  Mg  Mg34  1  0.03183200  0.35966000  0.36128100  1
  Mg  Mg35  1  0.44753100  0.89506200  0.54838800  1
  Mg  Mg36  1  0.53262400  0.06524800  0.78372000  1
  Mg  Mg37  1  0.44513567  0.89027133  0.16889033  1
  Mg  Mg38  1  0.33333333  0.66666667  0.66124867  1
  Mg  Mg39  1  0.66116133  0.02632667  0.02794767  1
  Mg  Mg40  1  0.64034000  0.96816800  0.36128100  1
  Mg  Mg41  1  0.44513567  0.55486433  0.16889033  1
  Mg  Mg42  1  0.44753100  0.55246900  0.54838800  1
  Mg  Mg43  1  0.69849867  0.00550533  0.69461433  1
  Mg  Mg44  1  0.60141867  0.80070933  0.11705333  1
  Mg  Mg45  1  0.53262400  0.46737600  0.78372000  1
  Mg  Mg46  1  0.64034000  0.67217200  0.36128100  1
  Mg  Mg47  1  0.77160467  0.88580233  0.88172133  1
  Mg  Mg48  1  0.77639533  0.88819767  0.50222367  1
  Mg  Mg49  1  0.66116133  0.63483467  0.02794767  1
  Mg  Mg50  1  0.69849867  0.69299333  0.69461433  1
  Al  Al51  1  0.21280400  0.42560800  0.59789200  1
  Al  Al52  1  0.27231333  0.54462667  0.35591167  1
  Al  Al53  1  0.18133267  0.18360433  0.18344333  1
  Al  Al54  1  0.12204000  0.06102000  0.68924500  1
  Al  Al55  1  0.33560500  0.48533400  0.85011000  1
  Al  Al56  1  0.24105867  0.12052933  0.93122533  1
  Al  Al57  1  0.18133267  0.99772833  0.18344333  1
  Al  Al58  1  0.48306233  0.33106167  0.51677667  1
  Al  Al59  1  0.21280400  0.78719600  0.59789200  1
  Al  Al60  1  0.48306233  0.15200067  0.51677667  1
  Al  Al61  1  0.27231333  0.72768667  0.35591167  1
  Al  Al62  1  0.33560500  0.85027100  0.85011000  1
  Al  Al63  1  0.87947067  0.75894133  0.93122533  1
  Al  Al64  1  0.93898000  0.87796000  0.68924500  1
  Al  Al65  1  0.84799933  0.51693767  0.51677667  1
  Al  Al66  1  0.78870667  0.39435333  0.02257833  1
  Al  Al67  1  0.00227167  0.81866733  0.18344333  1
  Al  Al68  1  0.90772533  0.45386267  0.26455867  1
  Al  Al69  1  0.84799933  0.33106167  0.51677667  1
  Al  Al70  1  0.14972900  0.66439500  0.85011000  1
  Al  Al71  1  0.87947067  0.12052933  0.93122533  1
  Al  Al72  1  0.14972900  0.48533400  0.85011000  1
  Al  Al73  1  0.93898000  0.06102000  0.68924500  1
  Al  Al74  1  0.00227167  0.18360433  0.18344333  1
  Al  Al75  1  0.54613733  0.09227467  0.26455867  1
  Al  Al76  1  0.60564667  0.21129333  0.02257833  1
  Al  Al77  1  0.51466600  0.85027100  0.85011000  1
  Al  Al78  1  0.45537333  0.72768667  0.35591167  1
  Al  Al79  1  0.66893833  0.15200067  0.51677667  1
  Al  Al80  1  0.57439200  0.78719600  0.59789200  1
  Al  Al81  1  0.51466600  0.66439500  0.85011000  1
  Al  Al82  1  0.81639567  0.99772833  0.18344333  1
  Al  Al83  1  0.54613733  0.45386267  0.26455867  1
  Al  Al84  1  0.81639567  0.81866733  0.18344333  1
  Al  Al85  1  0.60564667  0.39435333  0.02257833  1
  Al  Al86  1  0.66893833  0.51693767  0.51677667  1
