# generated using pymatgen
data_CaRhF6
_symmetry_space_group_name_H-M   'P 1'
_cell_length_a   5.45643603
_cell_length_b   5.45643603
_cell_length_c   14.72612992
_cell_angle_alpha   90.00000000
_cell_angle_beta   90.00000000
_cell_angle_gamma   120.00000000
_symmetry_Int_Tables_number   1
_chemical_formula_structural   CaRhF6
_chemical_formula_sum   'Ca3 Rh3 F18'
_cell_volume   379.69720036
_cell_formula_units_Z   3
loop_
 _symmetry_equiv_pos_site_id
 _symmetry_equiv_pos_as_xyz
  1  'x, y, z'
loop_
 _atom_site_type_symbol
 _atom_site_label
 _atom_site_symmetry_multiplicity
 _atom_site_fract_x
 _atom_site_fract_y
 _atom_site_fract_z
 _atom_site_occupancy
  Ca  Ca0  1  0.33333333  0.66666667  0.16666667  1
  Ca  Ca1  1  1.00000000  0.00000000  0.50000000  1
  Ca  Ca2  1  0.66666667  0.33333333  0.83333333  1
  Rh  Rh3  1  0.00000000  0.00000000  0.00000000  1
  Rh  Rh4  1  0.66666667  0.33333333  0.33333333  1
  Rh  Rh5  1  0.33333333  0.66666667  0.66666667  1
  F  F6  1  0.02187333  0.30025567  0.07714267  1
  F  F7  1  0.69974433  0.72161767  0.07714267  1
  F  F8  1  0.38828433  0.35520667  0.25619067  1
  F  F9  1  0.96692233  0.61171567  0.25619067  1
  F  F10  1  0.64479333  0.03307767  0.25619067  1
  F  F11  1  0.27838233  0.97812667  0.07714267  1
  F  F12  1  0.68854000  0.63358900  0.41047600  1
  F  F13  1  0.36641100  0.05495100  0.41047600  1
  F  F14  1  0.05495100  0.68854000  0.58952400  1
  F  F15  1  0.63358900  0.94504900  0.58952400  1
  F  F16  1  0.31146000  0.36641100  0.58952400  1
  F  F17  1  0.94504900  0.31146000  0.41047600  1
  F  F18  1  0.35520667  0.96692233  0.74380933  1
  F  F19  1  0.03307767  0.38828433  0.74380933  1
  F  F20  1  0.72161767  0.02187333  0.92285733  1
  F  F21  1  0.30025567  0.27838233  0.92285733  1
  F  F22  1  0.97812667  0.69974433  0.92285733  1
  F  F23  1  0.61171567  0.64479333  0.74380933  1
