# generated using pymatgen
data_BaAs2Pt
_symmetry_space_group_name_H-M   'P 1'
_cell_length_a   4.74523200
_cell_length_b   17.41007600
_cell_length_c   4.66397700
_cell_angle_alpha   90.00000000
_cell_angle_beta   90.00000000
_cell_angle_gamma   90.00000000
_symmetry_Int_Tables_number   1
_chemical_formula_structural   BaAs2Pt
_chemical_formula_sum   'Ba4 As8 Pt4'
_cell_volume   385.31375913
_cell_formula_units_Z   4
loop_
 _symmetry_equiv_pos_site_id
 _symmetry_equiv_pos_as_xyz
  1  'x, y, z'
loop_
 _atom_site_type_symbol
 _atom_site_label
 _atom_site_symmetry_multiplicity
 _atom_site_fract_x
 _atom_site_fract_y
 _atom_site_fract_z
 _atom_site_occupancy
  Ba  Ba0  1  0.50000000  0.10455600  0.75000000  1
  Ba  Ba1  1  0.00000000  0.39544400  0.25000000  1
  Ba  Ba2  1  0.00000000  0.60455600  0.75000000  1
  Ba  Ba3  1  0.50000000  0.89544400  0.25000000  1
  As  As4  1  0.50000000  0.46108200  0.75000000  1
  As  As5  1  0.00000000  0.03891800  0.25000000  1
  As  As6  1  0.50000000  0.24970700  0.25000000  1
  As  As7  1  0.00000000  0.25029300  0.75000000  1
  As  As8  1  0.00000000  0.96108200  0.75000000  1
  As  As9  1  0.50000000  0.53891800  0.25000000  1
  As  As10  1  0.00000000  0.74970700  0.25000000  1
  As  As11  1  0.50000000  0.75029300  0.75000000  1
  Pt  Pt12  1  0.00000000  0.18738500  0.25000000  1
  Pt  Pt13  1  0.50000000  0.31261500  0.75000000  1
  Pt  Pt14  1  0.50000000  0.68738500  0.25000000  1
  Pt  Pt15  1  0.00000000  0.81261500  0.75000000  1
