# generated using pymatgen
data_NbTc2Ge
_symmetry_space_group_name_H-M   'P 1'
_cell_length_a   6.26328800
_cell_length_b   6.26328800
_cell_length_c   6.26328800
_cell_angle_alpha   90.00000000
_cell_angle_beta   90.00000000
_cell_angle_gamma   90.00000000
_symmetry_Int_Tables_number   1
_chemical_formula_structural   NbTc2Ge
_chemical_formula_sum   'Nb4 Tc8 Ge4'
_cell_volume   245.70112555
_cell_formula_units_Z   4
loop_
 _symmetry_equiv_pos_site_id
 _symmetry_equiv_pos_as_xyz
  1  'x, y, z'
loop_
 _atom_site_type_symbol
 _atom_site_label
 _atom_site_symmetry_multiplicity
 _atom_site_fract_x
 _atom_site_fract_y
 _atom_site_fract_z
 _atom_site_occupancy
  Nb  Nb0  1  0.00000000  0.00000000  0.00000000  1
  Nb  Nb1  1  0.00000000  0.50000000  0.50000000  1
  Nb  Nb2  1  0.50000000  0.00000000  0.50000000  1
  Nb  Nb3  1  0.50000000  0.50000000  0.00000000  1
  Tc  Tc4  1  0.25000000  0.25000000  0.75000000  1
  Tc  Tc5  1  0.25000000  0.75000000  0.75000000  1
  Tc  Tc6  1  0.25000000  0.75000000  0.25000000  1
  Tc  Tc7  1  0.25000000  0.25000000  0.25000000  1
  Tc  Tc8  1  0.75000000  0.25000000  0.25000000  1
  Tc  Tc9  1  0.75000000  0.75000000  0.25000000  1
  Tc  Tc10  1  0.75000000  0.75000000  0.75000000  1
  Tc  Tc11  1  0.75000000  0.25000000  0.75000000  1
  Ge  Ge12  1  0.50000000  0.00000000  0.00000000  1
  Ge  Ge13  1  0.50000000  0.50000000  0.50000000  1
  Ge  Ge14  1  0.00000000  0.00000000  0.50000000  1
  Ge  Ge15  1  0.00000000  0.50000000  0.00000000  1
