# generated using pymatgen
data_RbInCl3
_symmetry_space_group_name_H-M   'P 1'
_cell_length_a   7.70139112
_cell_length_b   7.72012375
_cell_length_c   5.45295938
_cell_angle_alpha   90.00000000
_cell_angle_beta   90.22940380
_cell_angle_gamma   90.00000000
_symmetry_Int_Tables_number   1
_chemical_formula_structural   RbInCl3
_chemical_formula_sum   'Rb2 In2 Cl6'
_cell_volume   324.20687755
_cell_formula_units_Z   2
loop_
 _symmetry_equiv_pos_site_id
 _symmetry_equiv_pos_as_xyz
  1  'x, y, z'
loop_
 _atom_site_type_symbol
 _atom_site_label
 _atom_site_symmetry_multiplicity
 _atom_site_fract_x
 _atom_site_fract_y
 _atom_site_fract_z
 _atom_site_occupancy
  Rb  Rb0  1  0.49830833  0.50000000  0.99713617  1
  Rb  Rb1  1  0.99830833  0.00000000  0.99713617  1
  In  In2  1  0.99845011  0.50000000  0.48576271  1
  In  In3  1  0.49845011  0.00000000  0.48576271  1
  Cl  Cl4  1  0.24786821  0.75203862  0.48410591  1
  Cl  Cl5  1  0.00465664  0.50000000  0.98562428  1
  Cl  Cl6  1  0.24786821  0.24796138  0.48410591  1
  Cl  Cl7  1  0.74786821  0.25203862  0.48410591  1
  Cl  Cl8  1  0.50465664  0.00000000  0.98562428  1
  Cl  Cl9  1  0.74786821  0.74796138  0.48410591  1
