# generated using pymatgen
data_Sr3As
_symmetry_space_group_name_H-M   'P 1'
_cell_length_a   7.56626830
_cell_length_b   7.56626830
_cell_length_c   5.78807200
_cell_angle_alpha   90.00000000
_cell_angle_beta   90.00000000
_cell_angle_gamma   120.00000000
_symmetry_Int_Tables_number   1
_chemical_formula_structural   Sr3As
_chemical_formula_sum   'Sr6 As2'
_cell_volume   286.96440582
_cell_formula_units_Z   2
loop_
 _symmetry_equiv_pos_site_id
 _symmetry_equiv_pos_as_xyz
  1  'x, y, z'
loop_
 _atom_site_type_symbol
 _atom_site_label
 _atom_site_symmetry_multiplicity
 _atom_site_fract_x
 _atom_site_fract_y
 _atom_site_fract_z
 _atom_site_occupancy
  Sr  Sr0  1  0.35124500  0.17562250  0.75000000  1
  Sr  Sr1  1  0.82437750  0.17562250  0.75000000  1
  Sr  Sr2  1  0.82437750  0.64875500  0.75000000  1
  Sr  Sr3  1  0.64875500  0.82437750  0.25000000  1
  Sr  Sr4  1  0.17562250  0.82437750  0.25000000  1
  Sr  Sr5  1  0.17562250  0.35124500  0.25000000  1
  As  As6  1  0.66666667  0.33333333  0.25000000  1
  As  As7  1  0.33333333  0.66666667  0.75000000  1
