# generated using pymatgen
data_Pa3Tc
_symmetry_space_group_name_H-M   'P 1'
_cell_length_a   7.06180000
_cell_length_b   7.06180000
_cell_length_c   7.06180000
_cell_angle_alpha   90.00000000
_cell_angle_beta   90.00000000
_cell_angle_gamma   90.00000000
_symmetry_Int_Tables_number   1
_chemical_formula_structural   Pa3Tc
_chemical_formula_sum   'Pa12 Tc4'
_cell_volume   352.16504007
_cell_formula_units_Z   4
loop_
 _symmetry_equiv_pos_site_id
 _symmetry_equiv_pos_as_xyz
  1  'x, y, z'
loop_
 _atom_site_type_symbol
 _atom_site_label
 _atom_site_symmetry_multiplicity
 _atom_site_fract_x
 _atom_site_fract_y
 _atom_site_fract_z
 _atom_site_occupancy
  Pa  Pa0  1  0.25000000  0.75000000  0.75000000  1
  Pa  Pa1  1  0.25000000  0.25000000  0.75000000  1
  Pa  Pa2  1  0.50000000  0.00000000  0.00000000  1
  Pa  Pa3  1  0.25000000  0.25000000  0.25000000  1
  Pa  Pa4  1  0.25000000  0.75000000  0.25000000  1
  Pa  Pa5  1  0.50000000  0.50000000  0.50000000  1
  Pa  Pa6  1  0.75000000  0.75000000  0.25000000  1
  Pa  Pa7  1  0.75000000  0.25000000  0.25000000  1
  Pa  Pa8  1  0.00000000  0.00000000  0.50000000  1
  Pa  Pa9  1  0.75000000  0.25000000  0.75000000  1
  Pa  Pa10  1  0.75000000  0.75000000  0.75000000  1
  Pa  Pa11  1  0.00000000  0.50000000  0.00000000  1
  Tc  Tc12  1  0.00000000  0.00000000  0.00000000  1
  Tc  Tc13  1  0.00000000  0.50000000  0.50000000  1
  Tc  Tc14  1  0.50000000  0.00000000  0.50000000  1
  Tc  Tc15  1  0.50000000  0.50000000  0.00000000  1
