# generated using pymatgen
data_Hf3Si3Ni2
_symmetry_space_group_name_H-M   'P 1'
_cell_length_a   3.86414000
_cell_length_b   9.84981600
_cell_length_c   12.90555300
_cell_angle_alpha   90.00000000
_cell_angle_beta   90.00000000
_cell_angle_gamma   90.00000000
_symmetry_Int_Tables_number   1
_chemical_formula_structural   Hf3Si3Ni2
_chemical_formula_sum   'Hf12 Si12 Ni8'
_cell_volume   491.19913029
_cell_formula_units_Z   4
loop_
 _symmetry_equiv_pos_site_id
 _symmetry_equiv_pos_as_xyz
  1  'x, y, z'
loop_
 _atom_site_type_symbol
 _atom_site_label
 _atom_site_symmetry_multiplicity
 _atom_site_fract_x
 _atom_site_fract_y
 _atom_site_fract_z
 _atom_site_occupancy
  Hf  Hf0  1  0.50000000  0.36556200  0.75000000  1
  Hf  Hf1  1  0.00000000  0.13443800  0.25000000  1
  Hf  Hf2  1  0.00000000  0.42679600  0.11758600  1
  Hf  Hf3  1  0.50000000  0.07320400  0.88241400  1
  Hf  Hf4  1  0.50000000  0.07320400  0.61758600  1
  Hf  Hf5  1  0.00000000  0.42679600  0.38241400  1
  Hf  Hf6  1  0.00000000  0.86556200  0.75000000  1
  Hf  Hf7  1  0.50000000  0.63443800  0.25000000  1
  Hf  Hf8  1  0.50000000  0.92679600  0.11758600  1
  Hf  Hf9  1  0.00000000  0.57320400  0.88241400  1
  Hf  Hf10  1  0.00000000  0.57320400  0.61758600  1
  Hf  Hf11  1  0.50000000  0.92679600  0.38241400  1
  Si  Si12  1  0.00000000  0.15876800  0.75000000  1
  Si  Si13  1  0.50000000  0.34123200  0.25000000  1
  Si  Si14  1  0.00000000  0.11194300  0.04069900  1
  Si  Si15  1  0.50000000  0.38805700  0.95930100  1
  Si  Si16  1  0.50000000  0.38805700  0.54069900  1
  Si  Si17  1  0.00000000  0.11194300  0.45930100  1
  Si  Si18  1  0.50000000  0.65876800  0.75000000  1
  Si  Si19  1  0.00000000  0.84123200  0.25000000  1
  Si  Si20  1  0.50000000  0.61194300  0.04069900  1
  Si  Si21  1  0.00000000  0.88805700  0.95930100  1
  Si  Si22  1  0.00000000  0.88805700  0.54069900  1
  Si  Si23  1  0.50000000  0.61194300  0.45930100  1
  Ni  Ni24  1  0.50000000  0.21820000  0.41077400  1
  Ni  Ni25  1  0.00000000  0.28180000  0.58922600  1
  Ni  Ni26  1  0.00000000  0.28180000  0.91077400  1
  Ni  Ni27  1  0.50000000  0.21820000  0.08922600  1
  Ni  Ni28  1  0.00000000  0.71820000  0.41077400  1
  Ni  Ni29  1  0.50000000  0.78180000  0.58922600  1
  Ni  Ni30  1  0.50000000  0.78180000  0.91077400  1
  Ni  Ni31  1  0.00000000  0.71820000  0.08922600  1
