# generated using pymatgen
data_Ho11Ge10
_symmetry_space_group_name_H-M   'P 1'
_cell_length_a   10.90958200
_cell_length_b   10.90958200
_cell_length_c   16.41304000
_cell_angle_alpha   90.00000000
_cell_angle_beta   90.00000000
_cell_angle_gamma   90.00000000
_symmetry_Int_Tables_number   1
_chemical_formula_structural   Ho11Ge10
_chemical_formula_sum   'Ho44 Ge40'
_cell_volume   1953.46326989
_cell_formula_units_Z   4
loop_
 _symmetry_equiv_pos_site_id
 _symmetry_equiv_pos_as_xyz
  1  'x, y, z'
loop_
 _atom_site_type_symbol
 _atom_site_label
 _atom_site_symmetry_multiplicity
 _atom_site_fract_x
 _atom_site_fract_y
 _atom_site_fract_z
 _atom_site_occupancy
  Ho  Ho0  1  0.75217550  0.50000000  0.30981950  1
  Ho  Ho1  1  0.24782450  0.50000000  0.30981950  1
  Ho  Ho2  1  0.50000000  0.75217550  0.30981950  1
  Ho  Ho3  1  0.50000000  0.24782450  0.30981950  1
  Ho  Ho4  1  0.74782450  0.00000000  0.19018050  1
  Ho  Ho5  1  0.25217550  0.00000000  0.19018050  1
  Ho  Ho6  1  0.00000000  0.74782450  0.19018050  1
  Ho  Ho7  1  0.00000000  0.25217550  0.19018050  1
  Ho  Ho8  1  0.17754750  0.17754750  0.00000000  1
  Ho  Ho9  1  0.32245250  0.32245250  0.50000000  1
  Ho  Ho10  1  0.82245250  0.17754750  0.00000000  1
  Ho  Ho11  1  0.17754750  0.82245250  0.00000000  1
  Ho  Ho12  1  0.50000000  0.50000000  0.16000900  1
  Ho  Ho13  1  0.00000000  0.00000000  0.33999100  1
  Ho  Ho14  1  0.82405100  0.50000000  0.10257300  1
  Ho  Ho15  1  0.17594900  0.50000000  0.10257300  1
  Ho  Ho16  1  0.50000000  0.82405100  0.10257300  1
  Ho  Ho17  1  0.50000000  0.17594900  0.10257300  1
  Ho  Ho18  1  0.67594900  0.00000000  0.39742700  1
  Ho  Ho19  1  0.32405100  0.00000000  0.39742700  1
  Ho  Ho20  1  0.00000000  0.67594900  0.39742700  1
  Ho  Ho21  1  0.00000000  0.32405100  0.39742700  1
  Ho  Ho22  1  0.25217550  0.00000000  0.80981950  1
  Ho  Ho23  1  0.74782450  0.00000000  0.80981950  1
  Ho  Ho24  1  0.00000000  0.25217550  0.80981950  1
  Ho  Ho25  1  0.00000000  0.74782450  0.80981950  1
  Ho  Ho26  1  0.24782450  0.50000000  0.69018050  1
  Ho  Ho27  1  0.75217550  0.50000000  0.69018050  1
  Ho  Ho28  1  0.50000000  0.24782450  0.69018050  1
  Ho  Ho29  1  0.50000000  0.75217550  0.69018050  1
  Ho  Ho30  1  0.67754750  0.67754750  0.50000000  1
  Ho  Ho31  1  0.82245250  0.82245250  0.00000000  1
  Ho  Ho32  1  0.32245250  0.67754750  0.50000000  1
  Ho  Ho33  1  0.67754750  0.32245250  0.50000000  1
  Ho  Ho34  1  0.00000000  0.00000000  0.66000900  1
  Ho  Ho35  1  0.50000000  0.50000000  0.83999100  1
  Ho  Ho36  1  0.32405100  0.00000000  0.60257300  1
  Ho  Ho37  1  0.67594900  0.00000000  0.60257300  1
  Ho  Ho38  1  0.00000000  0.32405100  0.60257300  1
  Ho  Ho39  1  0.00000000  0.67594900  0.60257300  1
  Ho  Ho40  1  0.17594900  0.50000000  0.89742700  1
  Ho  Ho41  1  0.82405100  0.50000000  0.89742700  1
  Ho  Ho42  1  0.50000000  0.17594900  0.89742700  1
  Ho  Ho43  1  0.50000000  0.82405100  0.89742700  1
  Ge  Ge44  1  0.00000000  0.36057700  0.00000000  1
  Ge  Ge45  1  0.00000000  0.63942300  0.00000000  1
  Ge  Ge46  1  0.63942300  0.00000000  0.00000000  1
  Ge  Ge47  1  0.36057700  0.00000000  0.00000000  1
  Ge  Ge48  1  0.50000000  0.50000000  0.38706100  1
  Ge  Ge49  1  0.00000000  0.00000000  0.11293900  1
  Ge  Ge50  1  0.37996200  0.37996200  0.00000000  1
  Ge  Ge51  1  0.62003800  0.62003800  0.00000000  1
  Ge  Ge52  1  0.62003800  0.37996200  0.00000000  1
  Ge  Ge53  1  0.37996200  0.62003800  0.00000000  1
  Ge  Ge54  1  0.00000000  0.50000000  0.25000000  1
  Ge  Ge55  1  0.50000000  0.00000000  0.25000000  1
  Ge  Ge56  1  0.70983950  0.70983950  0.18117150  1
  Ge  Ge57  1  0.29016050  0.29016050  0.18117150  1
  Ge  Ge58  1  0.29016050  0.70983950  0.18117150  1
  Ge  Ge59  1  0.70983950  0.29016050  0.18117150  1
  Ge  Ge60  1  0.79016050  0.79016050  0.31882850  1
  Ge  Ge61  1  0.20983950  0.20983950  0.31882850  1
  Ge  Ge62  1  0.20983950  0.79016050  0.31882850  1
  Ge  Ge63  1  0.79016050  0.20983950  0.31882850  1
  Ge  Ge64  1  0.50000000  0.86057700  0.50000000  1
  Ge  Ge65  1  0.50000000  0.13942300  0.50000000  1
  Ge  Ge66  1  0.13942300  0.50000000  0.50000000  1
  Ge  Ge67  1  0.86057700  0.50000000  0.50000000  1
  Ge  Ge68  1  0.00000000  0.00000000  0.88706100  1
  Ge  Ge69  1  0.50000000  0.50000000  0.61293900  1
  Ge  Ge70  1  0.87996200  0.87996200  0.50000000  1
  Ge  Ge71  1  0.12003800  0.12003800  0.50000000  1
  Ge  Ge72  1  0.12003800  0.87996200  0.50000000  1
  Ge  Ge73  1  0.87996200  0.12003800  0.50000000  1
  Ge  Ge74  1  0.50000000  0.00000000  0.75000000  1
  Ge  Ge75  1  0.00000000  0.50000000  0.75000000  1
  Ge  Ge76  1  0.20983950  0.20983950  0.68117150  1
  Ge  Ge77  1  0.79016050  0.79016050  0.68117150  1
  Ge  Ge78  1  0.79016050  0.20983950  0.68117150  1
  Ge  Ge79  1  0.20983950  0.79016050  0.68117150  1
  Ge  Ge80  1  0.29016050  0.29016050  0.81882850  1
  Ge  Ge81  1  0.70983950  0.70983950  0.81882850  1
  Ge  Ge82  1  0.70983950  0.29016050  0.81882850  1
  Ge  Ge83  1  0.29016050  0.70983950  0.81882850  1
