# generated using pymatgen
data_Tm3(GePd)4
_symmetry_space_group_name_H-M   'P 1'
_cell_length_a   4.14493600
_cell_length_b   7.09606600
_cell_length_c   13.90397000
_cell_angle_alpha   90.00000000
_cell_angle_beta   90.00000000
_cell_angle_gamma   90.00000000
_symmetry_Int_Tables_number   1
_chemical_formula_structural   Tm3(GePd)4
_chemical_formula_sum   'Tm6 Ge8 Pd8'
_cell_volume   408.95384654
_cell_formula_units_Z   2
loop_
 _symmetry_equiv_pos_site_id
 _symmetry_equiv_pos_as_xyz
  1  'x, y, z'
loop_
 _atom_site_type_symbol
 _atom_site_label
 _atom_site_symmetry_multiplicity
 _atom_site_fract_x
 _atom_site_fract_y
 _atom_site_fract_z
 _atom_site_occupancy
  Tm  Tm0  1  0.00000000  0.50000000  0.87436800  1
  Tm  Tm1  1  0.50000000  0.00000000  0.62563200  1
  Tm  Tm2  1  0.00000000  0.00000000  0.00000000  1
  Tm  Tm3  1  0.50000000  0.00000000  0.37436800  1
  Tm  Tm4  1  0.00000000  0.50000000  0.12563200  1
  Tm  Tm5  1  0.50000000  0.50000000  0.50000000  1
  Ge  Ge6  1  0.50000000  0.68828400  0.00000000  1
  Ge  Ge7  1  0.50000000  0.31171600  0.00000000  1
  Ge  Ge8  1  0.50000000  0.50000000  0.71793500  1
  Ge  Ge9  1  0.00000000  0.00000000  0.78206500  1
  Ge  Ge10  1  0.00000000  0.18828400  0.50000000  1
  Ge  Ge11  1  0.00000000  0.81171600  0.50000000  1
  Ge  Ge12  1  0.00000000  0.00000000  0.21793500  1
  Ge  Ge13  1  0.50000000  0.50000000  0.28206500  1
  Pd  Pd14  1  0.50000000  0.79849900  0.82509900  1
  Pd  Pd15  1  0.00000000  0.29849900  0.67490100  1
  Pd  Pd16  1  0.50000000  0.20150100  0.82509900  1
  Pd  Pd17  1  0.00000000  0.70150100  0.67490100  1
  Pd  Pd18  1  0.00000000  0.29849900  0.32509900  1
  Pd  Pd19  1  0.50000000  0.79849900  0.17490100  1
  Pd  Pd20  1  0.00000000  0.70150100  0.32509900  1
  Pd  Pd21  1  0.50000000  0.20150100  0.17490100  1
