# generated using pymatgen
data_Nd11In9Ni4
_symmetry_space_group_name_H-M   'P 1'
_cell_length_a   14.73407200
_cell_length_b   22.13362600
_cell_length_c   3.74413600
_cell_angle_alpha   90.00000000
_cell_angle_beta   90.00000000
_cell_angle_gamma   90.00000000
_symmetry_Int_Tables_number   1
_chemical_formula_structural   Nd11In9Ni4
_chemical_formula_sum   'Nd22 In18 Ni8'
_cell_volume   1221.03178812
_cell_formula_units_Z   2
loop_
 _symmetry_equiv_pos_site_id
 _symmetry_equiv_pos_as_xyz
  1  'x, y, z'
loop_
 _atom_site_type_symbol
 _atom_site_label
 _atom_site_symmetry_multiplicity
 _atom_site_fract_x
 _atom_site_fract_y
 _atom_site_fract_z
 _atom_site_occupancy
  Nd  Nd0  1  0.24733200  0.16886800  0.00000000  1
  Nd  Nd1  1  0.75266800  0.83113200  0.00000000  1
  Nd  Nd2  1  0.24733200  0.83113200  0.00000000  1
  Nd  Nd3  1  0.75266800  0.16886800  0.00000000  1
  Nd  Nd4  1  0.50000000  0.87452200  0.00000000  1
  Nd  Nd5  1  0.50000000  0.12547800  0.00000000  1
  Nd  Nd6  1  0.50000000  0.66247900  0.00000000  1
  Nd  Nd7  1  0.50000000  0.33752100  0.00000000  1
  Nd  Nd8  1  0.00000000  0.00000000  0.00000000  1
  Nd  Nd9  1  0.31273000  0.00000000  0.00000000  1
  Nd  Nd10  1  0.68727000  0.00000000  0.00000000  1
  Nd  Nd11  1  0.74733200  0.66886800  0.00000000  1
  Nd  Nd12  1  0.25266800  0.33113200  0.00000000  1
  Nd  Nd13  1  0.74733200  0.33113200  0.00000000  1
  Nd  Nd14  1  0.25266800  0.66886800  0.00000000  1
  Nd  Nd15  1  0.00000000  0.37452200  0.00000000  1
  Nd  Nd16  1  0.00000000  0.62547800  0.00000000  1
  Nd  Nd17  1  0.00000000  0.16247900  0.00000000  1
  Nd  Nd18  1  0.00000000  0.83752100  0.00000000  1
  Nd  Nd19  1  0.50000000  0.50000000  0.00000000  1
  Nd  Nd20  1  0.81273000  0.50000000  0.00000000  1
  Nd  Nd21  1  0.18727000  0.50000000  0.00000000  1
  In  In22  1  0.60303550  0.76513150  0.50000000  1
  In  In23  1  0.39696450  0.23486850  0.50000000  1
  In  In24  1  0.60303550  0.23486850  0.50000000  1
  In  In25  1  0.39696450  0.76513150  0.50000000  1
  In  In26  1  0.15017400  0.06999800  0.50000000  1
  In  In27  1  0.84982600  0.93000200  0.50000000  1
  In  In28  1  0.15017400  0.93000200  0.50000000  1
  In  In29  1  0.84982600  0.06999800  0.50000000  1
  In  In30  1  0.50000000  0.00000000  0.50000000  1
  In  In31  1  0.10303550  0.26513150  0.50000000  1
  In  In32  1  0.89696450  0.73486850  0.50000000  1
  In  In33  1  0.10303550  0.73486850  0.50000000  1
  In  In34  1  0.89696450  0.26513150  0.50000000  1
  In  In35  1  0.65017400  0.56999800  0.50000000  1
  In  In36  1  0.34982600  0.43000200  0.50000000  1
  In  In37  1  0.65017400  0.43000200  0.50000000  1
  In  In38  1  0.34982600  0.56999800  0.50000000  1
  In  In39  1  0.00000000  0.50000000  0.50000000  1
  Ni  Ni40  1  0.34741750  0.10124650  0.50000000  1
  Ni  Ni41  1  0.65258250  0.89875350  0.50000000  1
  Ni  Ni42  1  0.34741750  0.89875350  0.50000000  1
  Ni  Ni43  1  0.65258250  0.10124650  0.50000000  1
  Ni  Ni44  1  0.84741750  0.60124650  0.50000000  1
  Ni  Ni45  1  0.15258250  0.39875350  0.50000000  1
  Ni  Ni46  1  0.84741750  0.39875350  0.50000000  1
  Ni  Ni47  1  0.15258250  0.60124650  0.50000000  1
