# generated using pymatgen
data_Er3P4Pd7
_symmetry_space_group_name_H-M   'P 1'
_cell_length_a   15.33509800
_cell_length_b   3.99115800
_cell_length_c   9.37490918
_cell_angle_alpha   90.00000000
_cell_angle_beta   125.41261682
_cell_angle_gamma   90.00000000
_symmetry_Int_Tables_number   1
_chemical_formula_structural   Er3P4Pd7
_chemical_formula_sum   'Er6 P8 Pd14'
_cell_volume   467.63851110
_cell_formula_units_Z   2
loop_
 _symmetry_equiv_pos_site_id
 _symmetry_equiv_pos_as_xyz
  1  'x, y, z'
loop_
 _atom_site_type_symbol
 _atom_site_label
 _atom_site_symmetry_multiplicity
 _atom_site_fract_x
 _atom_site_fract_y
 _atom_site_fract_z
 _atom_site_occupancy
  Er  Er0  1  0.00000000  0.50000000  0.50000000  1
  Er  Er1  1  0.68005000  0.50000000  0.17675600  1
  Er  Er2  1  0.31995000  0.50000000  0.82324400  1
  Er  Er3  1  0.50000000  0.00000000  0.50000000  1
  Er  Er4  1  0.18005000  0.00000000  0.17675600  1
  Er  Er5  1  0.81995000  0.00000000  0.82324400  1
  P  P6  1  0.10630100  0.50000000  0.32018300  1
  P  P7  1  0.89369900  0.50000000  0.67981700  1
  P  P8  1  0.15931000  0.00000000  0.75258900  1
  P  P9  1  0.84069000  0.00000000  0.24741100  1
  P  P10  1  0.60630100  0.00000000  0.32018300  1
  P  P11  1  0.39369900  0.00000000  0.67981700  1
  P  P12  1  0.65931000  0.50000000  0.75258900  1
  P  P13  1  0.34069000  0.50000000  0.24741100  1
  Pd  Pd14  1  0.83214900  0.50000000  0.07924100  1
  Pd  Pd15  1  0.99019500  0.00000000  0.21635600  1
  Pd  Pd16  1  0.00980500  0.00000000  0.78364400  1
  Pd  Pd17  1  0.00000000  0.50000000  0.00000000  1
  Pd  Pd18  1  0.80515200  0.00000000  0.46981500  1
  Pd  Pd19  1  0.19484800  0.00000000  0.53018500  1
  Pd  Pd20  1  0.16785100  0.50000000  0.92075900  1
  Pd  Pd21  1  0.33214900  0.00000000  0.07924100  1
  Pd  Pd22  1  0.49019500  0.50000000  0.21635600  1
  Pd  Pd23  1  0.50980500  0.50000000  0.78364400  1
  Pd  Pd24  1  0.50000000  0.00000000  0.00000000  1
  Pd  Pd25  1  0.30515200  0.50000000  0.46981500  1
  Pd  Pd26  1  0.69484800  0.50000000  0.53018500  1
  Pd  Pd27  1  0.66785100  0.00000000  0.92075900  1
