# generated using pymatgen
data_LuAlB4
_symmetry_space_group_name_H-M   'P 1'
_cell_length_a   7.27877000
_cell_length_b   9.26955200
_cell_length_c   3.50862700
_cell_angle_alpha   90.00000000
_cell_angle_beta   90.00000000
_cell_angle_gamma   90.00000000
_symmetry_Int_Tables_number   1
_chemical_formula_structural   LuAlB4
_chemical_formula_sum   'Lu4 Al4 B16'
_cell_volume   236.73035131
_cell_formula_units_Z   4
loop_
 _symmetry_equiv_pos_site_id
 _symmetry_equiv_pos_as_xyz
  1  'x, y, z'
loop_
 _atom_site_type_symbol
 _atom_site_label
 _atom_site_symmetry_multiplicity
 _atom_site_fract_x
 _atom_site_fract_y
 _atom_site_fract_z
 _atom_site_occupancy
  Lu  Lu0  1  0.50000000  0.30067300  0.00000000  1
  Lu  Lu1  1  0.50000000  0.69932700  0.00000000  1
  Lu  Lu2  1  0.00000000  0.80067300  0.00000000  1
  Lu  Lu3  1  0.00000000  0.19932700  0.00000000  1
  Al  Al4  1  0.68091900  0.00000000  0.00000000  1
  Al  Al5  1  0.31908100  0.00000000  0.00000000  1
  Al  Al6  1  0.18091900  0.50000000  0.00000000  1
  Al  Al7  1  0.81908100  0.50000000  0.00000000  1
  B  B8  1  0.72301100  0.84027200  0.50000000  1
  B  B9  1  0.50000000  0.09274800  0.50000000  1
  B  B10  1  0.87904700  0.00000000  0.50000000  1
  B  B11  1  0.72301100  0.15972800  0.50000000  1
  B  B12  1  0.27698900  0.84027200  0.50000000  1
  B  B13  1  0.12095300  0.00000000  0.50000000  1
  B  B14  1  0.50000000  0.90725200  0.50000000  1
  B  B15  1  0.27698900  0.15972800  0.50000000  1
  B  B16  1  0.22301100  0.34027200  0.50000000  1
  B  B17  1  0.00000000  0.59274800  0.50000000  1
  B  B18  1  0.37904700  0.50000000  0.50000000  1
  B  B19  1  0.22301100  0.65972800  0.50000000  1
  B  B20  1  0.77698900  0.34027200  0.50000000  1
  B  B21  1  0.62095300  0.50000000  0.50000000  1
  B  B22  1  0.00000000  0.40725200  0.50000000  1
  B  B23  1  0.77698900  0.65972800  0.50000000  1
