# generated using pymatgen
data_Li3Er
_symmetry_space_group_name_H-M   'P 1'
_cell_length_a   6.47759825
_cell_length_b   6.47759825
_cell_length_c   5.04748000
_cell_angle_alpha   90.00000000
_cell_angle_beta   90.00000000
_cell_angle_gamma   120.00000000
_symmetry_Int_Tables_number   1
_chemical_formula_structural   Li3Er
_chemical_formula_sum   'Li6 Er2'
_cell_volume   183.41432687
_cell_formula_units_Z   2
loop_
 _symmetry_equiv_pos_site_id
 _symmetry_equiv_pos_as_xyz
  1  'x, y, z'
loop_
 _atom_site_type_symbol
 _atom_site_label
 _atom_site_symmetry_multiplicity
 _atom_site_fract_x
 _atom_site_fract_y
 _atom_site_fract_z
 _atom_site_occupancy
  Li  Li0  1  0.30469900  0.15234950  0.75000000  1
  Li  Li1  1  0.84765050  0.15234950  0.75000000  1
  Li  Li2  1  0.84765050  0.69530100  0.75000000  1
  Li  Li3  1  0.69530100  0.84765050  0.25000000  1
  Li  Li4  1  0.15234950  0.84765050  0.25000000  1
  Li  Li5  1  0.15234950  0.30469900  0.25000000  1
  Er  Er6  1  0.66666667  0.33333333  0.25000000  1
  Er  Er7  1  0.33333333  0.66666667  0.75000000  1
