# generated using pymatgen
data_Tb3FeB7
_symmetry_space_group_name_H-M   'P 1'
_cell_length_a   3.43696600
_cell_length_b   15.77347000
_cell_length_c   9.34775400
_cell_angle_alpha   90.00000000
_cell_angle_beta   90.00000000
_cell_angle_gamma   90.00000000
_symmetry_Int_Tables_number   1
_chemical_formula_structural   Tb3FeB7
_chemical_formula_sum   'Tb12 Fe4 B28'
_cell_volume   506.76866673
_cell_formula_units_Z   4
loop_
 _symmetry_equiv_pos_site_id
 _symmetry_equiv_pos_as_xyz
  1  'x, y, z'
loop_
 _atom_site_type_symbol
 _atom_site_label
 _atom_site_symmetry_multiplicity
 _atom_site_fract_x
 _atom_site_fract_y
 _atom_site_fract_z
 _atom_site_occupancy
  Tb  Tb0  1  0.00000000  0.10470100  0.56024400  1
  Tb  Tb1  1  0.50000000  0.39529900  0.06024400  1
  Tb  Tb2  1  0.50000000  0.39529900  0.43975600  1
  Tb  Tb3  1  0.00000000  0.10470100  0.93975600  1
  Tb  Tb4  1  0.50000000  0.25696000  0.75000000  1
  Tb  Tb5  1  0.00000000  0.24304000  0.25000000  1
  Tb  Tb6  1  0.50000000  0.60470100  0.56024400  1
  Tb  Tb7  1  0.00000000  0.89529900  0.06024400  1
  Tb  Tb8  1  0.00000000  0.89529900  0.43975600  1
  Tb  Tb9  1  0.50000000  0.60470100  0.93975600  1
  Tb  Tb10  1  0.00000000  0.75696000  0.75000000  1
  Tb  Tb11  1  0.50000000  0.74304000  0.25000000  1
  Fe  Fe12  1  0.50000000  0.44515600  0.75000000  1
  Fe  Fe13  1  0.00000000  0.05484400  0.25000000  1
  Fe  Fe14  1  0.00000000  0.94515600  0.75000000  1
  Fe  Fe15  1  0.50000000  0.55484400  0.25000000  1
  B  B16  1  0.50000000  0.03896500  0.75000000  1
  B  B17  1  0.00000000  0.46103500  0.25000000  1
  B  B18  1  0.00000000  0.27254700  0.53253000  1
  B  B19  1  0.50000000  0.22745300  0.03253000  1
  B  B20  1  0.50000000  0.22745300  0.46747000  1
  B  B21  1  0.00000000  0.27254700  0.96747000  1
  B  B22  1  0.00000000  0.37010000  0.84672200  1
  B  B23  1  0.50000000  0.12990000  0.34672200  1
  B  B24  1  0.50000000  0.12990000  0.15327800  1
  B  B25  1  0.00000000  0.37010000  0.65327800  1
  B  B26  1  0.00000000  0.47766200  0.90048600  1
  B  B27  1  0.50000000  0.02233800  0.40048600  1
  B  B28  1  0.50000000  0.02233800  0.09951400  1
  B  B29  1  0.00000000  0.47766200  0.59951400  1
  B  B30  1  0.00000000  0.53896500  0.75000000  1
  B  B31  1  0.50000000  0.96103500  0.25000000  1
  B  B32  1  0.50000000  0.77254700  0.53253000  1
  B  B33  1  0.00000000  0.72745300  0.03253000  1
  B  B34  1  0.00000000  0.72745300  0.46747000  1
  B  B35  1  0.50000000  0.77254700  0.96747000  1
  B  B36  1  0.50000000  0.87010000  0.84672200  1
  B  B37  1  0.00000000  0.62990000  0.34672200  1
  B  B38  1  0.00000000  0.62990000  0.15327800  1
  B  B39  1  0.50000000  0.87010000  0.65327800  1
  B  B40  1  0.50000000  0.97766200  0.90048600  1
  B  B41  1  0.00000000  0.52233800  0.40048600  1
  B  B42  1  0.00000000  0.52233800  0.09951400  1
  B  B43  1  0.50000000  0.97766200  0.59951400  1
