# generated using pymatgen
data_Bi2Rh3S2
_symmetry_space_group_name_H-M   'P 1'
_cell_length_a   11.48605400
_cell_length_b   8.42191800
_cell_length_c   8.12816392
_cell_angle_alpha   90.00000000
_cell_angle_beta   133.45080107
_cell_angle_gamma   90.00000000
_symmetry_Int_Tables_number   1
_chemical_formula_structural   Bi2Rh3S2
_chemical_formula_sum   'Bi8 Rh12 S8'
_cell_volume   570.80807433
_cell_formula_units_Z   4
loop_
 _symmetry_equiv_pos_site_id
 _symmetry_equiv_pos_as_xyz
  1  'x, y, z'
loop_
 _atom_site_type_symbol
 _atom_site_label
 _atom_site_symmetry_multiplicity
 _atom_site_fract_x
 _atom_site_fract_y
 _atom_site_fract_z
 _atom_site_occupancy
  Bi  Bi0  1  0.00721000  0.00000000  0.75568200  1
  Bi  Bi1  1  0.50118000  0.00000000  0.75208000  1
  Bi  Bi2  1  0.99882000  0.50000000  0.24792000  1
  Bi  Bi3  1  0.49279000  0.50000000  0.24431800  1
  Bi  Bi4  1  0.50721000  0.50000000  0.75568200  1
  Bi  Bi5  1  0.00118000  0.50000000  0.75208000  1
  Bi  Bi6  1  0.49882000  0.00000000  0.24792000  1
  Bi  Bi7  1  0.99279000  0.00000000  0.24431800  1
  Rh  Rh8  1  0.75000000  0.75000000  0.00000000  1
  Rh  Rh9  1  0.00000000  0.75172500  0.00000000  1
  Rh  Rh10  1  0.00000000  0.24827500  0.00000000  1
  Rh  Rh11  1  0.25000000  0.75000000  0.00000000  1
  Rh  Rh12  1  0.75617650  0.00000000  0.75909700  1
  Rh  Rh13  1  0.74382350  0.50000000  0.24090300  1
  Rh  Rh14  1  0.25000000  0.25000000  0.00000000  1
  Rh  Rh15  1  0.50000000  0.25172500  0.00000000  1
  Rh  Rh16  1  0.50000000  0.74827500  0.00000000  1
  Rh  Rh17  1  0.75000000  0.25000000  0.00000000  1
  Rh  Rh18  1  0.25617650  0.50000000  0.75909700  1
  Rh  Rh19  1  0.24382350  0.00000000  0.24090300  1
  S  S20  1  0.72554050  0.72922950  0.69316100  1
  S  S21  1  0.22554050  0.77077050  0.69316100  1
  S  S22  1  0.77445950  0.77077050  0.30683900  1
  S  S23  1  0.27445950  0.72922950  0.30683900  1
  S  S24  1  0.22554050  0.22922950  0.69316100  1
  S  S25  1  0.72554050  0.27077050  0.69316100  1
  S  S26  1  0.27445950  0.27077050  0.30683900  1
  S  S27  1  0.77445950  0.22922950  0.30683900  1
