# generated using pymatgen
data_RbVP2S7
_symmetry_space_group_name_H-M   'P 1'
_cell_length_a   8.68058800
_cell_length_b   9.78110200
_cell_length_c   6.82840904
_cell_angle_alpha   90.00000000
_cell_angle_beta   97.63987502
_cell_angle_gamma   90.00000000
_symmetry_Int_Tables_number   1
_chemical_formula_structural   RbVP2S7
_chemical_formula_sum   'Rb2 V2 P4 S14'
_cell_volume   574.62448460
_cell_formula_units_Z   2
loop_
 _symmetry_equiv_pos_site_id
 _symmetry_equiv_pos_as_xyz
  1  'x, y, z'
loop_
 _atom_site_type_symbol
 _atom_site_label
 _atom_site_symmetry_multiplicity
 _atom_site_fract_x
 _atom_site_fract_y
 _atom_site_fract_z
 _atom_site_occupancy
  Rb  Rb0  1  0.50000000  0.39086400  0.50000000  1
  Rb  Rb1  1  0.00000000  0.89086400  0.50000000  1
  V  V2  1  0.50000000  0.00160400  0.00000000  1
  V  V3  1  0.00000000  0.50160400  0.00000000  1
  P  P4  1  0.19914650  0.14717550  0.07882800  1
  P  P5  1  0.80085350  0.14717550  0.92117200  1
  P  P6  1  0.69914650  0.64717550  0.07882800  1
  P  P7  1  0.30085350  0.64717550  0.92117200  1
  S  S8  1  0.50000000  0.51653700  0.00000000  1
  S  S9  1  0.36284550  0.82041750  0.78922900  1
  S  S10  1  0.33898550  0.02775750  0.26988900  1
  S  S11  1  0.66101450  0.02775750  0.73011100  1
  S  S12  1  0.68660850  0.16019650  0.16416300  1
  S  S13  1  0.31339150  0.16019650  0.83583700  1
  S  S14  1  0.63715450  0.82041750  0.21077100  1
  S  S15  1  0.00000000  0.01653700  0.00000000  1
  S  S16  1  0.86284550  0.32041750  0.78922900  1
  S  S17  1  0.83898550  0.52775750  0.26988900  1
  S  S18  1  0.16101450  0.52775750  0.73011100  1
  S  S19  1  0.18660850  0.66019650  0.16416300  1
  S  S20  1  0.81339150  0.66019650  0.83583700  1
  S  S21  1  0.13715450  0.32041750  0.21077100  1
