# generated using pymatgen
data_K4Ge2Au7
_symmetry_space_group_name_H-M   'P 1'
_cell_length_a   6.61070615
_cell_length_b   6.61070615
_cell_length_c   28.53830517
_cell_angle_alpha   90.00000000
_cell_angle_beta   90.00000000
_cell_angle_gamma   120.00000000
_symmetry_Int_Tables_number   1
_chemical_formula_structural   K4Ge2Au7
_chemical_formula_sum   'K12 Ge6 Au21'
_cell_volume   1080.07649475
_cell_formula_units_Z   3
loop_
 _symmetry_equiv_pos_site_id
 _symmetry_equiv_pos_as_xyz
  1  'x, y, z'
loop_
 _atom_site_type_symbol
 _atom_site_label
 _atom_site_symmetry_multiplicity
 _atom_site_fract_x
 _atom_site_fract_y
 _atom_site_fract_z
 _atom_site_occupancy
  K  K0  1  0.00000000  0.00000000  0.31718700  1
  K  K1  1  0.66666667  0.33333333  0.01614633  1
  K  K2  1  0.00000000  0.00000000  0.18904400  1
  K  K3  1  0.66666667  0.33333333  0.14428933  1
  K  K4  1  0.66666667  0.33333333  0.65052033  1
  K  K5  1  0.33333333  0.66666667  0.34947967  1
  K  K6  1  0.66666667  0.33333333  0.52237733  1
  K  K7  1  0.33333333  0.66666667  0.47762267  1
  K  K8  1  0.33333333  0.66666667  0.98385367  1
  K  K9  1  0.00000000  0.00000000  0.68281300  1
  K  K10  1  0.33333333  0.66666667  0.85571067  1
  K  K11  1  0.00000000  0.00000000  0.81095600  1
  Ge  Ge12  1  0.33333333  0.66666667  0.12154767  1
  Ge  Ge13  1  0.33333333  0.66666667  0.21178567  1
  Ge  Ge14  1  0.00000000  0.00000000  0.45488100  1
  Ge  Ge15  1  0.00000000  0.00000000  0.54511900  1
  Ge  Ge16  1  0.66666667  0.33333333  0.78821433  1
  Ge  Ge17  1  0.66666667  0.33333333  0.87845233  1
  Au  Au18  1  0.00000000  0.00000000  0.00000000  1
  Au  Au19  1  0.95221533  0.47610767  0.25288867  1
  Au  Au20  1  0.52389233  0.04778467  0.25288867  1
  Au  Au21  1  0.52389233  0.47610767  0.25288867  1
  Au  Au22  1  0.14277433  0.85722567  0.08044467  1
  Au  Au23  1  0.71445133  0.85722567  0.08044467  1
  Au  Au24  1  0.14277433  0.28554867  0.08044467  1
  Au  Au25  1  0.66666667  0.33333333  0.33333333  1
  Au  Au26  1  0.61888200  0.80944100  0.58622200  1
  Au  Au27  1  0.19055900  0.38111800  0.58622200  1
  Au  Au28  1  0.19055900  0.80944100  0.58622200  1
  Au  Au29  1  0.80944100  0.19055900  0.41377800  1
  Au  Au30  1  0.38111800  0.19055900  0.41377800  1
  Au  Au31  1  0.80944100  0.61888200  0.41377800  1
  Au  Au32  1  0.33333333  0.66666667  0.66666667  1
  Au  Au33  1  0.28554867  0.14277433  0.91955533  1
  Au  Au34  1  0.85722567  0.71445133  0.91955533  1
  Au  Au35  1  0.85722567  0.14277433  0.91955533  1
  Au  Au36  1  0.47610767  0.52389233  0.74711133  1
  Au  Au37  1  0.04778467  0.52389233  0.74711133  1
  Au  Au38  1  0.47610767  0.95221533  0.74711133  1
