# generated using pymatgen
data_Mg5As
_symmetry_space_group_name_H-M   'P 1'
_cell_length_a   11.66761000
_cell_length_b   3.14443800
_cell_length_c   7.42785231
_cell_angle_alpha   90.00000000
_cell_angle_beta   106.63976671
_cell_angle_gamma   90.00000000
_symmetry_Int_Tables_number   1
_chemical_formula_structural   Mg5As
_chemical_formula_sum   'Mg10 As2'
_cell_volume   261.10184783
_cell_formula_units_Z   2
loop_
 _symmetry_equiv_pos_site_id
 _symmetry_equiv_pos_as_xyz
  1  'x, y, z'
loop_
 _atom_site_type_symbol
 _atom_site_label
 _atom_site_symmetry_multiplicity
 _atom_site_fract_x
 _atom_site_fract_y
 _atom_site_fract_z
 _atom_site_occupancy
  Mg  Mg0  1  0.78819700  0.50000000  0.06153400  1
  Mg  Mg1  1  0.66742500  0.00000000  0.32454800  1
  Mg  Mg2  1  0.95203300  0.00000000  0.41784700  1
  Mg  Mg3  1  0.81447100  0.50000000  0.66917000  1
  Mg  Mg4  1  0.50433300  0.50000000  0.97887900  1
  Mg  Mg5  1  0.28819700  0.00000000  0.06153400  1
  Mg  Mg6  1  0.16742500  0.50000000  0.32454800  1
  Mg  Mg7  1  0.45203300  0.50000000  0.41784700  1
  Mg  Mg8  1  0.31447100  0.00000000  0.66917000  1
  Mg  Mg9  1  0.00433300  0.00000000  0.97887900  1
  As  As10  1  0.60687800  0.00000000  0.71468900  1
  As  As11  1  0.10687800  0.50000000  0.71468900  1
