# generated using pymatgen
data_K(ThSe3)2
_symmetry_space_group_name_H-M   'P 1'
_cell_length_a   4.24909600
_cell_length_b   5.58703800
_cell_length_c   22.44628200
_cell_angle_alpha   90.00000000
_cell_angle_beta   90.00000000
_cell_angle_gamma   90.00000000
_symmetry_Int_Tables_number   1
_chemical_formula_structural   K(ThSe3)2
_chemical_formula_sum   'K2 Th4 Se12'
_cell_volume   532.87161055
_cell_formula_units_Z   2
loop_
 _symmetry_equiv_pos_site_id
 _symmetry_equiv_pos_as_xyz
  1  'x, y, z'
loop_
 _atom_site_type_symbol
 _atom_site_label
 _atom_site_symmetry_multiplicity
 _atom_site_fract_x
 _atom_site_fract_y
 _atom_site_fract_z
 _atom_site_occupancy
  K  K0  1  0.00000000  0.00000000  0.00000000  1
  K  K1  1  0.50000000  0.50000000  0.50000000  1
  Th  Th2  1  0.00000000  0.50000000  0.82185400  1
  Th  Th3  1  0.50000000  0.00000000  0.67814600  1
  Th  Th4  1  0.50000000  0.00000000  0.32185400  1
  Th  Th5  1  0.00000000  0.50000000  0.17814600  1
  Se  Se6  1  0.50000000  0.50000000  0.72828100  1
  Se  Se7  1  0.00000000  0.75390450  0.60478950  1
  Se  Se8  1  0.50000000  0.74609550  0.89521050  1
  Se  Se9  1  0.50000000  0.25390450  0.89521050  1
  Se  Se10  1  0.00000000  0.24609550  0.60478950  1
  Se  Se11  1  0.00000000  0.00000000  0.77171900  1
  Se  Se12  1  0.00000000  0.00000000  0.22828100  1
  Se  Se13  1  0.50000000  0.25390450  0.10478950  1
  Se  Se14  1  0.00000000  0.24609550  0.39521050  1
  Se  Se15  1  0.00000000  0.75390450  0.39521050  1
  Se  Se16  1  0.50000000  0.74609550  0.10478950  1
  Se  Se17  1  0.50000000  0.50000000  0.27171900  1
