# generated using pymatgen
data_Yb2C3
_symmetry_space_group_name_H-M   'P 1'
_cell_length_a   8.34755800
_cell_length_b   8.34755800
_cell_length_c   8.34755800
_cell_angle_alpha   90.00000000
_cell_angle_beta   90.00000000
_cell_angle_gamma   90.00000000
_symmetry_Int_Tables_number   1
_chemical_formula_structural   Yb2C3
_chemical_formula_sum   'Yb16 C24'
_cell_volume   581.67223733
_cell_formula_units_Z   8
loop_
 _symmetry_equiv_pos_site_id
 _symmetry_equiv_pos_as_xyz
  1  'x, y, z'
loop_
 _atom_site_type_symbol
 _atom_site_label
 _atom_site_symmetry_multiplicity
 _atom_site_fract_x
 _atom_site_fract_y
 _atom_site_fract_z
 _atom_site_occupancy
  Yb  Yb0  1  0.30655250  0.30655250  0.30655250  1
  Yb  Yb1  1  0.94344750  0.44344750  0.05655250  1
  Yb  Yb2  1  0.44344750  0.05655250  0.94344750  1
  Yb  Yb3  1  0.05655250  0.94344750  0.44344750  1
  Yb  Yb4  1  0.69344750  0.80655250  0.19344750  1
  Yb  Yb5  1  0.80655250  0.19344750  0.69344750  1
  Yb  Yb6  1  0.19344750  0.69344750  0.80655250  1
  Yb  Yb7  1  0.05655250  0.05655250  0.05655250  1
  Yb  Yb8  1  0.80655250  0.80655250  0.80655250  1
  Yb  Yb9  1  0.44344750  0.94344750  0.55655250  1
  Yb  Yb10  1  0.94344750  0.55655250  0.44344750  1
  Yb  Yb11  1  0.55655250  0.44344750  0.94344750  1
  Yb  Yb12  1  0.19344750  0.30655250  0.69344750  1
  Yb  Yb13  1  0.30655250  0.69344750  0.19344750  1
  Yb  Yb14  1  0.69344750  0.19344750  0.30655250  1
  Yb  Yb15  1  0.55655250  0.55655250  0.55655250  1
  C  C16  1  0.00000000  0.75000000  0.04757000  1
  C  C17  1  0.00000000  0.75000000  0.20243000  1
  C  C18  1  0.29757000  0.00000000  0.25000000  1
  C  C19  1  0.25000000  0.29757000  0.00000000  1
  C  C20  1  0.20243000  0.00000000  0.75000000  1
  C  C21  1  0.75000000  0.20243000  0.00000000  1
  C  C22  1  0.00000000  0.25000000  0.45243000  1
  C  C23  1  0.25000000  0.45243000  0.00000000  1
  C  C24  1  0.00000000  0.25000000  0.29757000  1
  C  C25  1  0.45243000  0.00000000  0.25000000  1
  C  C26  1  0.04757000  0.00000000  0.75000000  1
  C  C27  1  0.75000000  0.04757000  0.00000000  1
  C  C28  1  0.50000000  0.25000000  0.54757000  1
  C  C29  1  0.50000000  0.25000000  0.70243000  1
  C  C30  1  0.79757000  0.50000000  0.75000000  1
  C  C31  1  0.75000000  0.79757000  0.50000000  1
  C  C32  1  0.70243000  0.50000000  0.25000000  1
  C  C33  1  0.25000000  0.70243000  0.50000000  1
  C  C34  1  0.50000000  0.75000000  0.95243000  1
  C  C35  1  0.75000000  0.95243000  0.50000000  1
  C  C36  1  0.50000000  0.75000000  0.79757000  1
  C  C37  1  0.95243000  0.50000000  0.75000000  1
  C  C38  1  0.54757000  0.50000000  0.25000000  1
  C  C39  1  0.25000000  0.54757000  0.50000000  1
