# generated using pymatgen
data_PrSm3
_symmetry_space_group_name_H-M   'P 1'
_cell_length_a   5.14961400
_cell_length_b   5.14961400
_cell_length_c   10.31872000
_cell_angle_alpha   90.00000000
_cell_angle_beta   90.00000000
_cell_angle_gamma   90.00000000
_symmetry_Int_Tables_number   1
_chemical_formula_structural   PrSm3
_chemical_formula_sum   'Pr2 Sm6'
_cell_volume   273.63722757
_cell_formula_units_Z   2
loop_
 _symmetry_equiv_pos_site_id
 _symmetry_equiv_pos_as_xyz
  1  'x, y, z'
loop_
 _atom_site_type_symbol
 _atom_site_label
 _atom_site_symmetry_multiplicity
 _atom_site_fract_x
 _atom_site_fract_y
 _atom_site_fract_z
 _atom_site_occupancy
  Pr  Pr0  1  0.00000000  0.00000000  0.00000000  1
  Pr  Pr1  1  0.50000000  0.50000000  0.50000000  1
  Sm  Sm2  1  0.00000000  0.50000000  0.25000000  1
  Sm  Sm3  1  0.50000000  0.00000000  0.25000000  1
  Sm  Sm4  1  0.50000000  0.50000000  0.00000000  1
  Sm  Sm5  1  0.50000000  0.00000000  0.75000000  1
  Sm  Sm6  1  0.00000000  0.50000000  0.75000000  1
  Sm  Sm7  1  0.00000000  0.00000000  0.50000000  1
