# generated using pymatgen
data_PtRh3
_symmetry_space_group_name_H-M   'P 1'
_cell_length_a   3.88048600
_cell_length_b   3.88048600
_cell_length_c   7.73797000
_cell_angle_alpha   90.00000000
_cell_angle_beta   90.00000000
_cell_angle_gamma   90.00000000
_symmetry_Int_Tables_number   1
_chemical_formula_structural   PtRh3
_chemical_formula_sum   'Pt2 Rh6'
_cell_volume   116.51968007
_cell_formula_units_Z   2
loop_
 _symmetry_equiv_pos_site_id
 _symmetry_equiv_pos_as_xyz
  1  'x, y, z'
loop_
 _atom_site_type_symbol
 _atom_site_label
 _atom_site_symmetry_multiplicity
 _atom_site_fract_x
 _atom_site_fract_y
 _atom_site_fract_z
 _atom_site_occupancy
  Pt  Pt0  1  0.00000000  0.00000000  0.00000000  1
  Pt  Pt1  1  0.50000000  0.50000000  0.50000000  1
  Rh  Rh2  1  0.00000000  0.50000000  0.25000000  1
  Rh  Rh3  1  0.50000000  0.00000000  0.25000000  1
  Rh  Rh4  1  0.50000000  0.50000000  0.00000000  1
  Rh  Rh5  1  0.50000000  0.00000000  0.75000000  1
  Rh  Rh6  1  0.00000000  0.50000000  0.75000000  1
  Rh  Rh7  1  0.00000000  0.00000000  0.50000000  1
