# generated using pymatgen
data_Nd(Al2Cu)4
_symmetry_space_group_name_H-M   'P 1'
_cell_length_a   8.90129600
_cell_length_b   8.90129600
_cell_length_c   5.19911800
_cell_angle_alpha   90.00000000
_cell_angle_beta   90.00000000
_cell_angle_gamma   90.00000000
_symmetry_Int_Tables_number   1
_chemical_formula_structural   Nd(Al2Cu)4
_chemical_formula_sum   'Nd2 Al16 Cu8'
_cell_volume   411.94208293
_cell_formula_units_Z   2
loop_
 _symmetry_equiv_pos_site_id
 _symmetry_equiv_pos_as_xyz
  1  'x, y, z'
loop_
 _atom_site_type_symbol
 _atom_site_label
 _atom_site_symmetry_multiplicity
 _atom_site_fract_x
 _atom_site_fract_y
 _atom_site_fract_z
 _atom_site_occupancy
  Nd  Nd0  1  0.00000000  0.00000000  0.00000000  1
  Nd  Nd1  1  0.50000000  0.50000000  0.50000000  1
  Al  Al2  1  0.77877800  0.00000000  0.50000000  1
  Al  Al3  1  0.50000000  0.72122200  0.00000000  1
  Al  Al4  1  0.65106000  0.00000000  0.00000000  1
  Al  Al5  1  0.50000000  0.84894000  0.50000000  1
  Al  Al6  1  0.50000000  0.15106000  0.50000000  1
  Al  Al7  1  0.34894000  0.00000000  0.00000000  1
  Al  Al8  1  0.22122200  0.00000000  0.50000000  1
  Al  Al9  1  0.50000000  0.27877800  0.00000000  1
  Al  Al10  1  0.27877800  0.50000000  0.00000000  1
  Al  Al11  1  0.00000000  0.22122200  0.50000000  1
  Al  Al12  1  0.15106000  0.50000000  0.50000000  1
  Al  Al13  1  0.00000000  0.34894000  0.00000000  1
  Al  Al14  1  0.00000000  0.65106000  0.00000000  1
  Al  Al15  1  0.84894000  0.50000000  0.50000000  1
  Al  Al16  1  0.72122200  0.50000000  0.00000000  1
  Al  Al17  1  0.00000000  0.77877800  0.50000000  1
  Cu  Cu18  1  0.75000000  0.75000000  0.25000000  1
  Cu  Cu19  1  0.75000000  0.75000000  0.75000000  1
  Cu  Cu20  1  0.75000000  0.25000000  0.75000000  1
  Cu  Cu21  1  0.75000000  0.25000000  0.25000000  1
  Cu  Cu22  1  0.25000000  0.25000000  0.75000000  1
  Cu  Cu23  1  0.25000000  0.25000000  0.25000000  1
  Cu  Cu24  1  0.25000000  0.75000000  0.25000000  1
  Cu  Cu25  1  0.25000000  0.75000000  0.75000000  1
