# generated using pymatgen
data_Nd
_symmetry_space_group_name_H-M   'P 1'
_cell_length_a   3.71199202
_cell_length_b   3.71199202
_cell_length_c   26.84732157
_cell_angle_alpha   90.00000000
_cell_angle_beta   90.00000000
_cell_angle_gamma   120.00000000
_symmetry_Int_Tables_number   1
_chemical_formula_structural   Nd
_chemical_formula_sum   Nd9
_cell_volume   320.36544402
_cell_formula_units_Z   9
loop_
 _symmetry_equiv_pos_site_id
 _symmetry_equiv_pos_as_xyz
  1  'x, y, z'
loop_
 _atom_site_type_symbol
 _atom_site_label
 _atom_site_symmetry_multiplicity
 _atom_site_fract_x
 _atom_site_fract_y
 _atom_site_fract_z
 _atom_site_occupancy
  Nd  Nd0  1  0.00000000  0.00000000  0.00000000  1
  Nd  Nd1  1  0.00000000  0.00000000  0.22271000  1
  Nd  Nd2  1  0.66666667  0.33333333  0.11062333  1
  Nd  Nd3  1  0.66666667  0.33333333  0.33333333  1
  Nd  Nd4  1  0.66666667  0.33333333  0.55604333  1
  Nd  Nd5  1  0.33333333  0.66666667  0.44395667  1
  Nd  Nd6  1  0.33333333  0.66666667  0.66666667  1
  Nd  Nd7  1  0.33333333  0.66666667  0.88937667  1
  Nd  Nd8  1  0.00000000  0.00000000  0.77729000  1
