# generated using pymatgen
data_Li2Mn4P4O15
_symmetry_space_group_name_H-M   'P 1'
_cell_length_a   10.67668400
_cell_length_b   14.48098600
_cell_length_c   18.55982611
_cell_angle_alpha   90.00000000
_cell_angle_beta   101.16944473
_cell_angle_gamma   90.00000000
_symmetry_Int_Tables_number   1
_chemical_formula_structural   Li2Mn4P4O15
_chemical_formula_sum   'Li16 Mn32 P32 O120'
_cell_volume   2815.16188781
_cell_formula_units_Z   8
loop_
 _symmetry_equiv_pos_site_id
 _symmetry_equiv_pos_as_xyz
  1  'x, y, z'
loop_
 _atom_site_type_symbol
 _atom_site_label
 _atom_site_symmetry_multiplicity
 _atom_site_fract_x
 _atom_site_fract_y
 _atom_site_fract_z
 _atom_site_occupancy
  Li  Li0  1  0.26825400  0.24333400  0.75756600  1
  Li  Li1  1  0.60858500  0.07659800  0.94351700  1
  Li  Li2  1  0.39141500  0.07659800  0.55648300  1
  Li  Li3  1  0.26825400  0.75666600  0.25756600  1
  Li  Li4  1  0.73174600  0.24333400  0.74243400  1
  Li  Li5  1  0.60858500  0.92340200  0.44351700  1
  Li  Li6  1  0.39141500  0.92340200  0.05648300  1
  Li  Li7  1  0.73174600  0.75666600  0.24243400  1
  Li  Li8  1  0.76825400  0.74333400  0.75756600  1
  Li  Li9  1  0.10858500  0.57659800  0.94351700  1
  Li  Li10  1  0.89141500  0.57659800  0.55648300  1
  Li  Li11  1  0.76825400  0.25666600  0.25756600  1
  Li  Li12  1  0.23174600  0.74333400  0.74243400  1
  Li  Li13  1  0.10858500  0.42340200  0.44351700  1
  Li  Li14  1  0.89141500  0.42340200  0.05648300  1
  Li  Li15  1  0.23174600  0.25666600  0.24243400  1
  Mn  Mn16  1  0.09903250  0.94826450  0.56932800  1
  Mn  Mn17  1  0.40708500  0.68705100  0.93736900  1
  Mn  Mn18  1  0.75000000  0.25000000  0.50000000  1
  Mn  Mn19  1  0.09903250  0.05173550  0.06932800  1
  Mn  Mn20  1  0.50000000  0.67650600  0.75000000  1
  Mn  Mn21  1  0.50000000  0.97766000  0.75000000  1
  Mn  Mn22  1  0.50000000  0.44897900  0.75000000  1
  Mn  Mn23  1  0.40708500  0.31294900  0.43736900  1
  Mn  Mn24  1  0.59291500  0.68705100  0.56263100  1
  Mn  Mn25  1  0.50000000  0.02234000  0.25000000  1
  Mn  Mn26  1  0.50000000  0.32349400  0.25000000  1
  Mn  Mn27  1  0.50000000  0.55102100  0.25000000  1
  Mn  Mn28  1  0.90096750  0.94826450  0.93067200  1
  Mn  Mn29  1  0.59291500  0.31294900  0.06263100  1
  Mn  Mn30  1  0.90096750  0.05173550  0.43067200  1
  Mn  Mn31  1  0.75000000  0.75000000  0.00000000  1
  Mn  Mn32  1  0.59903250  0.44826450  0.56932800  1
  Mn  Mn33  1  0.90708500  0.18705100  0.93736900  1
  Mn  Mn34  1  0.25000000  0.75000000  0.50000000  1
  Mn  Mn35  1  0.59903250  0.55173550  0.06932800  1
  Mn  Mn36  1  0.00000000  0.17650600  0.75000000  1
  Mn  Mn37  1  0.00000000  0.47766000  0.75000000  1
  Mn  Mn38  1  0.00000000  0.94897900  0.75000000  1
  Mn  Mn39  1  0.90708500  0.81294900  0.43736900  1
  Mn  Mn40  1  0.09291500  0.18705100  0.56263100  1
  Mn  Mn41  1  0.00000000  0.52234000  0.25000000  1
  Mn  Mn42  1  0.00000000  0.82349400  0.25000000  1
  Mn  Mn43  1  0.00000000  0.05102100  0.25000000  1
  Mn  Mn44  1  0.40096750  0.44826450  0.93067200  1
  Mn  Mn45  1  0.09291500  0.81294900  0.06263100  1
  Mn  Mn46  1  0.40096750  0.55173550  0.43067200  1
  Mn  Mn47  1  0.25000000  0.25000000  0.00000000  1
  P  P48  1  0.16856750  0.05931450  0.90071600  1
  P  P49  1  0.16818050  0.85461650  0.89980300  1
  P  P50  1  0.22870750  0.07190350  0.67981400  1
  P  P51  1  0.16856750  0.94068550  0.40071600  1
  P  P52  1  0.16818050  0.14538350  0.39980300  1
  P  P53  1  0.38342500  0.83646900  0.62592400  1
  P  P54  1  0.22870750  0.92809650  0.17981400  1
  P  P55  1  0.61657500  0.83646900  0.87407600  1
  P  P56  1  0.38342500  0.16353100  0.12592400  1
  P  P57  1  0.77129250  0.07190350  0.82018600  1
  P  P58  1  0.61657500  0.16353100  0.37407600  1
  P  P59  1  0.83181950  0.85461650  0.60019700  1
  P  P60  1  0.83143250  0.05931450  0.59928400  1
  P  P61  1  0.77129250  0.92809650  0.32018600  1
  P  P62  1  0.83181950  0.14538350  0.10019700  1
  P  P63  1  0.83143250  0.94068550  0.09928400  1
  P  P64  1  0.66856750  0.55931450  0.90071600  1
  P  P65  1  0.66818050  0.35461650  0.89980300  1
  P  P66  1  0.72870750  0.57190350  0.67981400  1
  P  P67  1  0.66856750  0.44068550  0.40071600  1
  P  P68  1  0.66818050  0.64538350  0.39980300  1
  P  P69  1  0.88342500  0.33646900  0.62592400  1
  P  P70  1  0.72870750  0.42809650  0.17981400  1
  P  P71  1  0.11657500  0.33646900  0.87407600  1
  P  P72  1  0.88342500  0.66353100  0.12592400  1
  P  P73  1  0.27129250  0.57190350  0.82018600  1
  P  P74  1  0.11657500  0.66353100  0.37407600  1
  P  P75  1  0.33181950  0.35461650  0.60019700  1
  P  P76  1  0.33143250  0.55931450  0.59928400  1
  P  P77  1  0.27129250  0.42809650  0.32018600  1
  P  P78  1  0.33181950  0.64538350  0.10019700  1
  P  P79  1  0.33143250  0.44068550  0.09928400  1
  O  O80  1  0.10533800  0.06330800  0.81928900  1
  O  O81  1  0.14902800  0.98324100  0.68550300  1
  O  O82  1  0.23500000  0.95754300  0.91553700  1
  O  O83  1  0.27421450  0.12805650  0.92660400  1
  O  O84  1  0.27545300  0.79151100  0.93303400  1
  O  O85  1  0.10533800  0.93669200  0.31928900  1
  O  O86  1  0.24348900  0.07422900  0.59614200  1
  O  O87  1  0.24385450  0.85202750  0.58288600  1
  O  O88  1  0.34822200  0.66271100  0.81292600  1
  O  O89  1  0.14902800  0.01675900  0.18550300  1
  O  O90  1  0.35503700  0.07731700  0.73469600  1
  O  O91  1  0.23500000  0.04245700  0.41553700  1
  O  O92  1  0.27421450  0.87194350  0.42660400  1
  O  O93  1  0.27545300  0.20848900  0.43303400  1
  O  O94  1  0.37522450  0.78450050  0.69792000  1
  O  O95  1  0.38348750  0.34407650  0.68304200  1
  O  O96  1  0.06068150  0.06018550  0.94829700  1
  O  O97  1  0.55917250  0.35188450  0.94462300  1
  O  O98  1  0.55879800  0.77418800  0.92838900  1
  O  O99  1  0.24348900  0.92577100  0.09614200  1
  O  O100  1  0.54187400  0.92791000  0.85792400  1
  O  O101  1  0.24385450  0.14797250  0.08288600  1
  O  O102  1  0.45812600  0.92791000  0.64207600  1
  O  O103  1  0.44120200  0.77418800  0.57161100  1
  O  O104  1  0.44082750  0.35188450  0.55537700  1
  O  O105  1  0.93931850  0.06018550  0.55170300  1
  O  O106  1  0.34822200  0.33728900  0.31292600  1
  O  O107  1  0.35503700  0.92268300  0.23469600  1
  O  O108  1  0.61651250  0.34407650  0.81695800  1
  O  O109  1  0.62477550  0.78450050  0.80208000  1
  O  O110  1  0.37522450  0.21549950  0.19792000  1
  O  O111  1  0.38348750  0.65592350  0.18304200  1
  O  O112  1  0.64496300  0.07731700  0.76530400  1
  O  O113  1  0.65177800  0.66271100  0.68707400  1
  O  O114  1  0.06068150  0.93981450  0.44829700  1
  O  O115  1  0.55917250  0.64811550  0.44462300  1
  O  O116  1  0.55879800  0.22581200  0.42838900  1
  O  O117  1  0.54187400  0.07209000  0.35792400  1
  O  O118  1  0.75614550  0.85202750  0.91711400  1
  O  O119  1  0.45812600  0.07209000  0.14207600  1
  O  O120  1  0.75651100  0.07422900  0.90385800  1
  O  O121  1  0.44120200  0.22581200  0.07161100  1
  O  O122  1  0.44082750  0.64811550  0.05537700  1
  O  O123  1  0.93931850  0.93981450  0.05170300  1
  O  O124  1  0.61651250  0.65592350  0.31695800  1
  O  O125  1  0.62477550  0.21549950  0.30208000  1
  O  O126  1  0.72454700  0.79151100  0.56696600  1
  O  O127  1  0.72578550  0.12805650  0.57339600  1
  O  O128  1  0.76500000  0.95754300  0.58446300  1
  O  O129  1  0.64496300  0.92268300  0.26530400  1
  O  O130  1  0.85097200  0.98324100  0.81449700  1
  O  O131  1  0.65177800  0.33728900  0.18707400  1
  O  O132  1  0.75614550  0.14797250  0.41711400  1
  O  O133  1  0.75651100  0.92577100  0.40385800  1
  O  O134  1  0.89466200  0.06330800  0.68071100  1
  O  O135  1  0.72454700  0.20848900  0.06696600  1
  O  O136  1  0.72578550  0.87194350  0.07339600  1
  O  O137  1  0.76500000  0.04245700  0.08446300  1
  O  O138  1  0.85097200  0.01675900  0.31449700  1
  O  O139  1  0.89466200  0.93669200  0.18071100  1
  O  O140  1  0.60533800  0.56330800  0.81928900  1
  O  O141  1  0.64902800  0.48324100  0.68550300  1
  O  O142  1  0.73500000  0.45754300  0.91553700  1
  O  O143  1  0.77421450  0.62805650  0.92660400  1
  O  O144  1  0.77545300  0.29151100  0.93303400  1
  O  O145  1  0.60533800  0.43669200  0.31928900  1
  O  O146  1  0.74348900  0.57422900  0.59614200  1
  O  O147  1  0.74385450  0.35202750  0.58288600  1
  O  O148  1  0.84822200  0.16271100  0.81292600  1
  O  O149  1  0.64902800  0.51675900  0.18550300  1
  O  O150  1  0.85503700  0.57731700  0.73469600  1
  O  O151  1  0.73500000  0.54245700  0.41553700  1
  O  O152  1  0.77421450  0.37194350  0.42660400  1
  O  O153  1  0.77545300  0.70848900  0.43303400  1
  O  O154  1  0.87522450  0.28450050  0.69792000  1
  O  O155  1  0.88348750  0.84407650  0.68304200  1
  O  O156  1  0.56068150  0.56018550  0.94829700  1
  O  O157  1  0.05917250  0.85188450  0.94462300  1
  O  O158  1  0.05879800  0.27418800  0.92838900  1
  O  O159  1  0.74348900  0.42577100  0.09614200  1
  O  O160  1  0.04187400  0.42791000  0.85792400  1
  O  O161  1  0.74385450  0.64797250  0.08288600  1
  O  O162  1  0.95812600  0.42791000  0.64207600  1
  O  O163  1  0.94120200  0.27418800  0.57161100  1
  O  O164  1  0.94082750  0.85188450  0.55537700  1
  O  O165  1  0.43931850  0.56018550  0.55170300  1
  O  O166  1  0.84822200  0.83728900  0.31292600  1
  O  O167  1  0.85503700  0.42268300  0.23469600  1
  O  O168  1  0.11651250  0.84407650  0.81695800  1
  O  O169  1  0.12477550  0.28450050  0.80208000  1
  O  O170  1  0.87522450  0.71549950  0.19792000  1
  O  O171  1  0.88348750  0.15592350  0.18304200  1
  O  O172  1  0.14496300  0.57731700  0.76530400  1
  O  O173  1  0.15177800  0.16271100  0.68707400  1
  O  O174  1  0.56068150  0.43981450  0.44829700  1
  O  O175  1  0.05917250  0.14811550  0.44462300  1
  O  O176  1  0.05879800  0.72581200  0.42838900  1
  O  O177  1  0.04187400  0.57209000  0.35792400  1
  O  O178  1  0.25614550  0.35202750  0.91711400  1
  O  O179  1  0.95812600  0.57209000  0.14207600  1
  O  O180  1  0.25651100  0.57422900  0.90385800  1
  O  O181  1  0.94120200  0.72581200  0.07161100  1
  O  O182  1  0.94082750  0.14811550  0.05537700  1
  O  O183  1  0.43931850  0.43981450  0.05170300  1
  O  O184  1  0.11651250  0.15592350  0.31695800  1
  O  O185  1  0.12477550  0.71549950  0.30208000  1
  O  O186  1  0.22454700  0.29151100  0.56696600  1
  O  O187  1  0.22578550  0.62805650  0.57339600  1
  O  O188  1  0.26500000  0.45754300  0.58446300  1
  O  O189  1  0.14496300  0.42268300  0.26530400  1
  O  O190  1  0.35097200  0.48324100  0.81449700  1
  O  O191  1  0.15177800  0.83728900  0.18707400  1
  O  O192  1  0.25614550  0.64797250  0.41711400  1
  O  O193  1  0.25651100  0.42577100  0.40385800  1
  O  O194  1  0.39466200  0.56330800  0.68071100  1
  O  O195  1  0.22454700  0.70848900  0.06696600  1
  O  O196  1  0.22578550  0.37194350  0.07339600  1
  O  O197  1  0.26500000  0.54245700  0.08446300  1
  O  O198  1  0.35097200  0.51675900  0.31449700  1
  O  O199  1  0.39466200  0.43669200  0.18071100  1
