# generated using pymatgen
data_Zn7Sb8Ru9
_symmetry_space_group_name_H-M   'P 1'
_cell_length_a   12.01190400
_cell_length_b   12.01190400
_cell_length_c   12.01190400
_cell_angle_alpha   90.00000000
_cell_angle_beta   90.00000000
_cell_angle_gamma   90.00000000
_symmetry_Int_Tables_number   1
_chemical_formula_structural   Zn7Sb8Ru9
_chemical_formula_sum   'Zn28 Sb32 Ru36'
_cell_volume   1733.14763107
_cell_formula_units_Z   4
loop_
 _symmetry_equiv_pos_site_id
 _symmetry_equiv_pos_as_xyz
  1  'x, y, z'
loop_
 _atom_site_type_symbol
 _atom_site_label
 _atom_site_symmetry_multiplicity
 _atom_site_fract_x
 _atom_site_fract_y
 _atom_site_fract_z
 _atom_site_occupancy
  Zn  Zn0  1  0.00000000  0.75000000  0.75000000  1
  Zn  Zn1  1  0.00000000  0.25000000  0.75000000  1
  Zn  Zn2  1  0.75000000  0.00000000  0.75000000  1
  Zn  Zn3  1  0.25000000  0.25000000  0.00000000  1
  Zn  Zn4  1  0.25000000  0.00000000  0.75000000  1
  Zn  Zn5  1  0.25000000  0.75000000  0.00000000  1
  Zn  Zn6  1  0.00000000  0.00000000  0.00000000  1
  Zn  Zn7  1  0.00000000  0.25000000  0.25000000  1
  Zn  Zn8  1  0.00000000  0.75000000  0.25000000  1
  Zn  Zn9  1  0.75000000  0.50000000  0.25000000  1
  Zn  Zn10  1  0.25000000  0.75000000  0.50000000  1
  Zn  Zn11  1  0.25000000  0.50000000  0.25000000  1
  Zn  Zn12  1  0.25000000  0.25000000  0.50000000  1
  Zn  Zn13  1  0.00000000  0.50000000  0.50000000  1
  Zn  Zn14  1  0.50000000  0.75000000  0.25000000  1
  Zn  Zn15  1  0.50000000  0.25000000  0.25000000  1
  Zn  Zn16  1  0.25000000  0.00000000  0.25000000  1
  Zn  Zn17  1  0.75000000  0.25000000  0.50000000  1
  Zn  Zn18  1  0.75000000  0.00000000  0.25000000  1
  Zn  Zn19  1  0.75000000  0.75000000  0.50000000  1
  Zn  Zn20  1  0.50000000  0.00000000  0.50000000  1
  Zn  Zn21  1  0.50000000  0.25000000  0.75000000  1
  Zn  Zn22  1  0.50000000  0.75000000  0.75000000  1
  Zn  Zn23  1  0.25000000  0.50000000  0.75000000  1
  Zn  Zn24  1  0.75000000  0.75000000  0.00000000  1
  Zn  Zn25  1  0.75000000  0.50000000  0.75000000  1
  Zn  Zn26  1  0.75000000  0.25000000  0.00000000  1
  Zn  Zn27  1  0.50000000  0.50000000  0.00000000  1
  Sb  Sb28  1  0.27401000  0.00000000  0.00000000  1
  Sb  Sb29  1  0.72599000  0.00000000  0.00000000  1
  Sb  Sb30  1  0.50000000  0.77401000  0.00000000  1
  Sb  Sb31  1  0.50000000  0.00000000  0.77401000  1
  Sb  Sb32  1  0.50000000  0.22599000  0.00000000  1
  Sb  Sb33  1  0.00000000  0.00000000  0.72599000  1
  Sb  Sb34  1  0.25000000  0.75000000  0.75000000  1
  Sb  Sb35  1  0.25000000  0.25000000  0.75000000  1
  Sb  Sb36  1  0.27401000  0.50000000  0.50000000  1
  Sb  Sb37  1  0.72599000  0.50000000  0.50000000  1
  Sb  Sb38  1  0.50000000  0.27401000  0.50000000  1
  Sb  Sb39  1  0.50000000  0.50000000  0.27401000  1
  Sb  Sb40  1  0.50000000  0.72599000  0.50000000  1
  Sb  Sb41  1  0.00000000  0.50000000  0.22599000  1
  Sb  Sb42  1  0.25000000  0.25000000  0.25000000  1
  Sb  Sb43  1  0.25000000  0.75000000  0.25000000  1
  Sb  Sb44  1  0.77401000  0.00000000  0.50000000  1
  Sb  Sb45  1  0.22599000  0.00000000  0.50000000  1
  Sb  Sb46  1  0.00000000  0.77401000  0.50000000  1
  Sb  Sb47  1  0.00000000  0.00000000  0.27401000  1
  Sb  Sb48  1  0.00000000  0.22599000  0.50000000  1
  Sb  Sb49  1  0.50000000  0.00000000  0.22599000  1
  Sb  Sb50  1  0.75000000  0.75000000  0.25000000  1
  Sb  Sb51  1  0.75000000  0.25000000  0.25000000  1
  Sb  Sb52  1  0.77401000  0.50000000  0.00000000  1
  Sb  Sb53  1  0.22599000  0.50000000  0.00000000  1
  Sb  Sb54  1  0.00000000  0.27401000  0.00000000  1
  Sb  Sb55  1  0.00000000  0.50000000  0.77401000  1
  Sb  Sb56  1  0.00000000  0.72599000  0.00000000  1
  Sb  Sb57  1  0.50000000  0.50000000  0.72599000  1
  Sb  Sb58  1  0.75000000  0.25000000  0.75000000  1
  Sb  Sb59  1  0.75000000  0.75000000  0.75000000  1
  Ru  Ru60  1  0.12351200  0.62351200  0.62351200  1
  Ru  Ru61  1  0.37648800  0.87648800  0.62351200  1
  Ru  Ru62  1  0.12351200  0.87648800  0.87648800  1
  Ru  Ru63  1  0.37648800  0.62351200  0.87648800  1
  Ru  Ru64  1  0.37648800  0.37648800  0.87648800  1
  Ru  Ru65  1  0.12351200  0.12351200  0.87648800  1
  Ru  Ru66  1  0.12351200  0.37648800  0.62351200  1
  Ru  Ru67  1  0.37648800  0.12351200  0.62351200  1
  Ru  Ru68  1  0.50000000  0.00000000  0.00000000  1
  Ru  Ru69  1  0.12351200  0.12351200  0.12351200  1
  Ru  Ru70  1  0.37648800  0.37648800  0.12351200  1
  Ru  Ru71  1  0.12351200  0.37648800  0.37648800  1
  Ru  Ru72  1  0.37648800  0.12351200  0.37648800  1
  Ru  Ru73  1  0.37648800  0.87648800  0.37648800  1
  Ru  Ru74  1  0.12351200  0.62351200  0.37648800  1
  Ru  Ru75  1  0.12351200  0.87648800  0.12351200  1
  Ru  Ru76  1  0.37648800  0.62351200  0.12351200  1
  Ru  Ru77  1  0.50000000  0.50000000  0.50000000  1
  Ru  Ru78  1  0.62351200  0.62351200  0.12351200  1
  Ru  Ru79  1  0.87648800  0.87648800  0.12351200  1
  Ru  Ru80  1  0.62351200  0.87648800  0.37648800  1
  Ru  Ru81  1  0.87648800  0.62351200  0.37648800  1
  Ru  Ru82  1  0.87648800  0.37648800  0.37648800  1
  Ru  Ru83  1  0.62351200  0.12351200  0.37648800  1
  Ru  Ru84  1  0.62351200  0.37648800  0.12351200  1
  Ru  Ru85  1  0.87648800  0.12351200  0.12351200  1
  Ru  Ru86  1  0.00000000  0.00000000  0.50000000  1
  Ru  Ru87  1  0.62351200  0.12351200  0.62351200  1
  Ru  Ru88  1  0.87648800  0.37648800  0.62351200  1
  Ru  Ru89  1  0.62351200  0.37648800  0.87648800  1
  Ru  Ru90  1  0.87648800  0.12351200  0.87648800  1
  Ru  Ru91  1  0.87648800  0.87648800  0.87648800  1
  Ru  Ru92  1  0.62351200  0.62351200  0.87648800  1
  Ru  Ru93  1  0.62351200  0.87648800  0.62351200  1
  Ru  Ru94  1  0.87648800  0.62351200  0.62351200  1
  Ru  Ru95  1  0.00000000  0.50000000  0.00000000  1
