# generated using pymatgen
data_Pr2Co12P7
_symmetry_space_group_name_H-M   'P 1'
_cell_length_a   9.09085716
_cell_length_b   9.09085716
_cell_length_c   3.63851300
_cell_angle_alpha   90.00000000
_cell_angle_beta   90.00000000
_cell_angle_gamma   120.00000000
_symmetry_Int_Tables_number   1
_chemical_formula_structural   Pr2Co12P7
_chemical_formula_sum   'Pr2 Co12 P7'
_cell_volume   260.41394131
_cell_formula_units_Z   1
loop_
 _symmetry_equiv_pos_site_id
 _symmetry_equiv_pos_as_xyz
  1  'x, y, z'
loop_
 _atom_site_type_symbol
 _atom_site_label
 _atom_site_symmetry_multiplicity
 _atom_site_fract_x
 _atom_site_fract_y
 _atom_site_fract_z
 _atom_site_occupancy
  Pr  Pr0  1  0.00000000  0.00000000  0.00000000  1
  Pr  Pr1  1  0.33333333  0.66666667  0.50000000  1
  Co  Co2  1  0.09791700  0.39090100  0.00000000  1
  Co  Co3  1  0.60909900  0.70701600  0.00000000  1
  Co  Co4  1  0.29298400  0.90208300  0.00000000  1
  Co  Co5  1  0.04667300  0.76323600  0.50000000  1
  Co  Co6  1  0.23676400  0.28343700  0.50000000  1
  Co  Co7  1  0.71656300  0.95332700  0.50000000  1
  Co  Co8  1  0.81605500  0.60270000  0.00000000  1
  Co  Co9  1  0.39730000  0.21335500  0.00000000  1
  Co  Co10  1  0.78664500  0.18394500  0.00000000  1
  Co  Co11  1  0.89409000  0.43402800  0.50000000  1
  Co  Co12  1  0.56597200  0.46006200  0.50000000  1
  Co  Co13  1  0.53993800  0.10591000  0.50000000  1
  P  P14  1  0.77034900  0.72952000  0.50000000  1
  P  P15  1  0.27048000  0.04082900  0.50000000  1
  P  P16  1  0.95917100  0.22965100  0.50000000  1
  P  P17  1  0.66666667  0.33333333  0.00000000  1
  P  P18  1  0.06721800  0.62753100  0.00000000  1
  P  P19  1  0.37246900  0.43968700  0.00000000  1
  P  P20  1  0.56031300  0.93278200  0.00000000  1
