# generated using pymatgen
data_TlInCl3
_symmetry_space_group_name_H-M   'P 1'
_cell_length_a   7.65834600
_cell_length_b   7.66558200
_cell_length_c   5.41190010
_cell_angle_alpha   90.00000000
_cell_angle_beta   90.05042588
_cell_angle_gamma   90.00000000
_symmetry_Int_Tables_number   1
_chemical_formula_structural   TlInCl3
_chemical_formula_sum   'Tl2 In2 Cl6'
_cell_volume   317.70914811
_cell_formula_units_Z   2
loop_
 _symmetry_equiv_pos_site_id
 _symmetry_equiv_pos_as_xyz
  1  'x, y, z'
loop_
 _atom_site_type_symbol
 _atom_site_label
 _atom_site_symmetry_multiplicity
 _atom_site_fract_x
 _atom_site_fract_y
 _atom_site_fract_z
 _atom_site_occupancy
  Tl  Tl0  1  0.00585700  0.00000000  0.98998000  1
  Tl  Tl1  1  0.50585700  0.50000000  0.98998000  1
  In  In2  1  0.49758900  0.00000000  0.51314200  1
  In  In3  1  0.99758900  0.50000000  0.51314200  1
  Cl  Cl4  1  0.74790450  0.25126750  0.52183300  1
  Cl  Cl5  1  0.49119800  0.00000000  0.01567500  1
  Cl  Cl6  1  0.74790450  0.74873250  0.52183300  1
  Cl  Cl7  1  0.24790450  0.75126750  0.52183300  1
  Cl  Cl8  1  0.99119800  0.50000000  0.01567500  1
  Cl  Cl9  1  0.24790450  0.24873250  0.52183300  1
