# generated using pymatgen
data_Sr3MgIrO6
_symmetry_space_group_name_H-M   'P 1'
_cell_length_a   9.73381875
_cell_length_b   9.73381875
_cell_length_c   11.21706283
_cell_angle_alpha   90.00000000
_cell_angle_beta   90.00000000
_cell_angle_gamma   120.00000000
_symmetry_Int_Tables_number   1
_chemical_formula_structural   Sr3MgIrO6
_chemical_formula_sum   'Sr18 Mg6 Ir6 O36'
_cell_volume   920.39933145
_cell_formula_units_Z   6
loop_
 _symmetry_equiv_pos_site_id
 _symmetry_equiv_pos_as_xyz
  1  'x, y, z'
loop_
 _atom_site_type_symbol
 _atom_site_label
 _atom_site_symmetry_multiplicity
 _atom_site_fract_x
 _atom_site_fract_y
 _atom_site_fract_z
 _atom_site_occupancy
  Sr  Sr0  1  0.66666667  0.96929633  0.58333333  1
  Sr  Sr1  1  0.03070367  0.69737033  0.58333333  1
  Sr  Sr2  1  0.69737033  0.66666667  0.41666667  1
  Sr  Sr3  1  0.33333333  0.03070367  0.41666667  1
  Sr  Sr4  1  0.96929633  0.30262967  0.41666667  1
  Sr  Sr5  1  0.30262967  0.33333333  0.58333333  1
  Sr  Sr6  1  0.33333333  0.30262967  0.91666667  1
  Sr  Sr7  1  0.69737033  0.03070367  0.91666667  1
  Sr  Sr8  1  0.36403700  0.00000000  0.75000000  1
  Sr  Sr9  1  0.00000000  0.36403700  0.75000000  1
  Sr  Sr10  1  0.63596300  0.63596300  0.75000000  1
  Sr  Sr11  1  0.96929633  0.66666667  0.91666667  1
  Sr  Sr12  1  0.00000000  0.63596300  0.25000000  1
  Sr  Sr13  1  0.36403700  0.36403700  0.25000000  1
  Sr  Sr14  1  0.03070367  0.33333333  0.08333333  1
  Sr  Sr15  1  0.66666667  0.69737033  0.08333333  1
  Sr  Sr16  1  0.30262967  0.96929633  0.08333333  1
  Sr  Sr17  1  0.63596300  0.00000000  0.25000000  1
  Mg  Mg18  1  0.00000000  0.00000000  0.25000000  1
  Mg  Mg19  1  0.00000000  0.00000000  0.75000000  1
  Mg  Mg20  1  0.66666667  0.33333333  0.58333333  1
  Mg  Mg21  1  0.66666667  0.33333333  0.08333333  1
  Mg  Mg22  1  0.33333333  0.66666667  0.91666667  1
  Mg  Mg23  1  0.33333333  0.66666667  0.41666667  1
  Ir  Ir24  1  0.00000000  0.00000000  0.00000000  1
  Ir  Ir25  1  0.00000000  0.00000000  0.50000000  1
  Ir  Ir26  1  0.66666667  0.33333333  0.33333333  1
  Ir  Ir27  1  0.66666667  0.33333333  0.83333333  1
  Ir  Ir28  1  0.33333333  0.66666667  0.66666667  1
  Ir  Ir29  1  0.33333333  0.66666667  0.16666667  1
  O  O30  1  0.17166633  0.01972467  0.61533467  1
  O  O31  1  0.98027533  0.15194167  0.61533467  1
  O  O32  1  0.84805833  0.82833367  0.61533467  1
  O  O33  1  0.48527500  0.64694200  0.55133200  1
  O  O34  1  0.35305800  0.83833300  0.55133200  1
  O  O35  1  0.16166700  0.51472500  0.55133200  1
  O  O36  1  0.82833367  0.98027533  0.38466533  1
  O  O37  1  0.01972467  0.84805833  0.38466533  1
  O  O38  1  0.15194167  0.17166633  0.38466533  1
  O  O39  1  0.51472500  0.35305800  0.44866800  1
  O  O40  1  0.83833300  0.48527500  0.44866800  1
  O  O41  1  0.64694200  0.16166700  0.44866800  1
  O  O42  1  0.83833300  0.35305800  0.94866800  1
  O  O43  1  0.64694200  0.48527500  0.94866800  1
  O  O44  1  0.51472500  0.16166700  0.94866800  1
  O  O45  1  0.15194167  0.98027533  0.88466533  1
  O  O46  1  0.01972467  0.17166633  0.88466533  1
  O  O47  1  0.82833367  0.84805833  0.88466533  1
  O  O48  1  0.49500033  0.31360867  0.71799867  1
  O  O49  1  0.68639133  0.18139167  0.71799867  1
  O  O50  1  0.81860833  0.50499967  0.71799867  1
  O  O51  1  0.18139167  0.68639133  0.78200133  1
  O  O52  1  0.50499967  0.81860833  0.78200133  1
  O  O53  1  0.31360867  0.49500033  0.78200133  1
  O  O54  1  0.50499967  0.68639133  0.28200133  1
  O  O55  1  0.31360867  0.81860833  0.28200133  1
  O  O56  1  0.18139167  0.49500033  0.28200133  1
  O  O57  1  0.81860833  0.31360867  0.21799867  1
  O  O58  1  0.68639133  0.50499967  0.21799867  1
  O  O59  1  0.49500033  0.18139167  0.21799867  1
  O  O60  1  0.16166700  0.64694200  0.05133200  1
  O  O61  1  0.35305800  0.51472500  0.05133200  1
  O  O62  1  0.48527500  0.83833300  0.05133200  1
  O  O63  1  0.84805833  0.01972467  0.11533467  1
  O  O64  1  0.17166633  0.15194167  0.11533467  1
  O  O65  1  0.98027533  0.82833367  0.11533467  1
