# generated using pymatgen
data_MgPb5
_symmetry_space_group_name_H-M   'P 1'
_cell_length_a   5.98912820
_cell_length_b   5.98912820
_cell_length_c   17.56016572
_cell_angle_alpha   90.00000000
_cell_angle_beta   90.00000000
_cell_angle_gamma   120.00000000
_symmetry_Int_Tables_number   1
_chemical_formula_structural   MgPb5
_chemical_formula_sum   'Mg3 Pb15'
_cell_volume   545.48958255
_cell_formula_units_Z   3
loop_
 _symmetry_equiv_pos_site_id
 _symmetry_equiv_pos_as_xyz
  1  'x, y, z'
loop_
 _atom_site_type_symbol
 _atom_site_label
 _atom_site_symmetry_multiplicity
 _atom_site_fract_x
 _atom_site_fract_y
 _atom_site_fract_z
 _atom_site_occupancy
  Mg  Mg0  1  0.33333333  0.66666667  0.16666667  1
  Mg  Mg1  1  0.00000000  0.00000000  0.50000000  1
  Mg  Mg2  1  0.66666667  0.33333333  0.83333333  1
  Pb  Pb3  1  0.33534700  0.33534700  0.00000000  1
  Pb  Pb4  1  0.66465300  0.00000000  0.00000000  1
  Pb  Pb5  1  0.00000000  0.66465300  0.00000000  1
  Pb  Pb6  1  0.66666667  0.33333333  0.16809733  1
  Pb  Pb7  1  0.00000000  0.00000000  0.16523600  1
  Pb  Pb8  1  0.00201367  0.66868033  0.33333333  1
  Pb  Pb9  1  0.33131967  0.33333333  0.33333333  1
  Pb  Pb10  1  0.66666667  0.99798633  0.33333333  1
  Pb  Pb11  1  0.33333333  0.66666667  0.50143067  1
  Pb  Pb12  1  0.66666667  0.33333333  0.49856933  1
  Pb  Pb13  1  0.66868033  0.00201367  0.66666667  1
  Pb  Pb14  1  0.99798633  0.66666667  0.66666667  1
  Pb  Pb15  1  0.33333333  0.33131967  0.66666667  1
  Pb  Pb16  1  0.00000000  0.00000000  0.83476400  1
  Pb  Pb17  1  0.33333333  0.66666667  0.83190267  1
