# generated using pymatgen
data_La(Mg4Al3)4
_symmetry_space_group_name_H-M   'P 1'
_cell_length_a   10.58878000
_cell_length_b   10.58878000
_cell_length_c   10.58878000
_cell_angle_alpha   90.00000000
_cell_angle_beta   90.00000000
_cell_angle_gamma   90.00000000
_symmetry_Int_Tables_number   1
_chemical_formula_structural   La(Mg4Al3)4
_chemical_formula_sum   'La2 Mg32 Al24'
_cell_volume   1187.23796424
_cell_formula_units_Z   2
loop_
 _symmetry_equiv_pos_site_id
 _symmetry_equiv_pos_as_xyz
  1  'x, y, z'
loop_
 _atom_site_type_symbol
 _atom_site_label
 _atom_site_symmetry_multiplicity
 _atom_site_fract_x
 _atom_site_fract_y
 _atom_site_fract_z
 _atom_site_occupancy
  La  La0  1  0.00000000  0.00000000  0.00000000  1
  La  La1  1  0.50000000  0.50000000  0.50000000  1
  Mg  Mg2  1  0.96094550  0.35886950  0.35886950  1
  Mg  Mg3  1  0.68226650  0.31773350  0.31773350  1
  Mg  Mg4  1  0.46094550  0.14113050  0.14113050  1
  Mg  Mg5  1  0.18226650  0.18226650  0.18226650  1
  Mg  Mg6  1  0.53905450  0.85886950  0.14113050  1
  Mg  Mg7  1  0.14113050  0.14113050  0.46094550  1
  Mg  Mg8  1  0.14113050  0.53905450  0.85886950  1
  Mg  Mg9  1  0.31773350  0.31773350  0.68226650  1
  Mg  Mg10  1  0.85886950  0.14113050  0.53905450  1
  Mg  Mg11  1  0.35886950  0.96094550  0.35886950  1
  Mg  Mg12  1  0.85886950  0.53905450  0.14113050  1
  Mg  Mg13  1  0.35886950  0.35886950  0.96094550  1
  Mg  Mg14  1  0.31773350  0.68226650  0.31773350  1
  Mg  Mg15  1  0.14113050  0.85886950  0.53905450  1
  Mg  Mg16  1  0.14113050  0.46094550  0.14113050  1
  Mg  Mg17  1  0.53905450  0.14113050  0.85886950  1
  Mg  Mg18  1  0.46094550  0.85886950  0.85886950  1
  Mg  Mg19  1  0.18226650  0.81773350  0.81773350  1
  Mg  Mg20  1  0.96094550  0.64113050  0.64113050  1
  Mg  Mg21  1  0.68226650  0.68226650  0.68226650  1
  Mg  Mg22  1  0.03905450  0.35886950  0.64113050  1
  Mg  Mg23  1  0.64113050  0.64113050  0.96094550  1
  Mg  Mg24  1  0.64113050  0.03905450  0.35886950  1
  Mg  Mg25  1  0.81773350  0.81773350  0.18226650  1
  Mg  Mg26  1  0.35886950  0.64113050  0.03905450  1
  Mg  Mg27  1  0.85886950  0.46094550  0.85886950  1
  Mg  Mg28  1  0.35886950  0.03905450  0.64113050  1
  Mg  Mg29  1  0.85886950  0.85886950  0.46094550  1
  Mg  Mg30  1  0.81773350  0.18226650  0.81773350  1
  Mg  Mg31  1  0.64113050  0.35886950  0.03905450  1
  Mg  Mg32  1  0.64113050  0.96094550  0.64113050  1
  Mg  Mg33  1  0.03905450  0.64113050  0.35886950  1
  Al  Al34  1  0.22029050  0.40821250  0.40821250  1
  Al  Al35  1  0.72029050  0.09178750  0.09178750  1
  Al  Al36  1  0.27970950  0.90821250  0.09178750  1
  Al  Al37  1  0.40821250  0.22029050  0.40821250  1
  Al  Al38  1  0.90821250  0.09178750  0.27970950  1
  Al  Al39  1  0.09178750  0.72029050  0.09178750  1
  Al  Al40  1  0.09178750  0.90821250  0.27970950  1
  Al  Al41  1  0.09178750  0.27970950  0.90821250  1
  Al  Al42  1  0.09178750  0.09178750  0.72029050  1
  Al  Al43  1  0.90821250  0.27970950  0.09178750  1
  Al  Al44  1  0.40821250  0.40821250  0.22029050  1
  Al  Al45  1  0.27970950  0.09178750  0.90821250  1
  Al  Al46  1  0.72029050  0.90821250  0.90821250  1
  Al  Al47  1  0.22029050  0.59178750  0.59178750  1
  Al  Al48  1  0.77970950  0.40821250  0.59178750  1
  Al  Al49  1  0.90821250  0.72029050  0.90821250  1
  Al  Al50  1  0.40821250  0.59178750  0.77970950  1
  Al  Al51  1  0.59178750  0.22029050  0.59178750  1
  Al  Al52  1  0.59178750  0.40821250  0.77970950  1
  Al  Al53  1  0.59178750  0.77970950  0.40821250  1
  Al  Al54  1  0.59178750  0.59178750  0.22029050  1
  Al  Al55  1  0.40821250  0.77970950  0.59178750  1
  Al  Al56  1  0.90821250  0.90821250  0.72029050  1
  Al  Al57  1  0.77970950  0.59178750  0.40821250  1
