# generated using pymatgen
data_Tm6Al7Cu16
_symmetry_space_group_name_H-M   'P 1'
_cell_length_a   12.19779200
_cell_length_b   12.19779200
_cell_length_c   12.19779200
_cell_angle_alpha   90.00000000
_cell_angle_beta   90.00000000
_cell_angle_gamma   90.00000000
_symmetry_Int_Tables_number   1
_chemical_formula_structural   Tm6Al7Cu16
_chemical_formula_sum   'Tm24 Al28 Cu64'
_cell_volume   1814.86226226
_cell_formula_units_Z   4
loop_
 _symmetry_equiv_pos_site_id
 _symmetry_equiv_pos_as_xyz
  1  'x, y, z'
loop_
 _atom_site_type_symbol
 _atom_site_label
 _atom_site_symmetry_multiplicity
 _atom_site_fract_x
 _atom_site_fract_y
 _atom_site_fract_z
 _atom_site_occupancy
  Tm  Tm0  1  0.29126800  0.00000000  0.00000000  1
  Tm  Tm1  1  0.70873200  0.00000000  0.00000000  1
  Tm  Tm2  1  0.50000000  0.79126800  0.00000000  1
  Tm  Tm3  1  0.50000000  0.00000000  0.79126800  1
  Tm  Tm4  1  0.50000000  0.20873200  0.00000000  1
  Tm  Tm5  1  0.00000000  0.00000000  0.70873200  1
  Tm  Tm6  1  0.29126800  0.50000000  0.50000000  1
  Tm  Tm7  1  0.70873200  0.50000000  0.50000000  1
  Tm  Tm8  1  0.50000000  0.29126800  0.50000000  1
  Tm  Tm9  1  0.50000000  0.50000000  0.29126800  1
  Tm  Tm10  1  0.50000000  0.70873200  0.50000000  1
  Tm  Tm11  1  0.00000000  0.50000000  0.20873200  1
  Tm  Tm12  1  0.79126800  0.00000000  0.50000000  1
  Tm  Tm13  1  0.20873200  0.00000000  0.50000000  1
  Tm  Tm14  1  0.00000000  0.79126800  0.50000000  1
  Tm  Tm15  1  0.00000000  0.00000000  0.29126800  1
  Tm  Tm16  1  0.00000000  0.20873200  0.50000000  1
  Tm  Tm17  1  0.50000000  0.00000000  0.20873200  1
  Tm  Tm18  1  0.79126800  0.50000000  0.00000000  1
  Tm  Tm19  1  0.20873200  0.50000000  0.00000000  1
  Tm  Tm20  1  0.00000000  0.29126800  0.00000000  1
  Tm  Tm21  1  0.00000000  0.50000000  0.79126800  1
  Tm  Tm22  1  0.00000000  0.70873200  0.00000000  1
  Tm  Tm23  1  0.50000000  0.50000000  0.70873200  1
  Al  Al24  1  0.00000000  0.75000000  0.75000000  1
  Al  Al25  1  0.00000000  0.25000000  0.75000000  1
  Al  Al26  1  0.75000000  0.00000000  0.75000000  1
  Al  Al27  1  0.25000000  0.25000000  0.00000000  1
  Al  Al28  1  0.25000000  0.00000000  0.75000000  1
  Al  Al29  1  0.25000000  0.75000000  0.00000000  1
  Al  Al30  1  0.00000000  0.00000000  0.00000000  1
  Al  Al31  1  0.00000000  0.25000000  0.25000000  1
  Al  Al32  1  0.00000000  0.75000000  0.25000000  1
  Al  Al33  1  0.75000000  0.50000000  0.25000000  1
  Al  Al34  1  0.25000000  0.75000000  0.50000000  1
  Al  Al35  1  0.25000000  0.50000000  0.25000000  1
  Al  Al36  1  0.25000000  0.25000000  0.50000000  1
  Al  Al37  1  0.00000000  0.50000000  0.50000000  1
  Al  Al38  1  0.50000000  0.75000000  0.25000000  1
  Al  Al39  1  0.50000000  0.25000000  0.25000000  1
  Al  Al40  1  0.25000000  0.00000000  0.25000000  1
  Al  Al41  1  0.75000000  0.25000000  0.50000000  1
  Al  Al42  1  0.75000000  0.00000000  0.25000000  1
  Al  Al43  1  0.75000000  0.75000000  0.50000000  1
  Al  Al44  1  0.50000000  0.00000000  0.50000000  1
  Al  Al45  1  0.50000000  0.25000000  0.75000000  1
  Al  Al46  1  0.50000000  0.75000000  0.75000000  1
  Al  Al47  1  0.25000000  0.50000000  0.75000000  1
  Al  Al48  1  0.75000000  0.75000000  0.00000000  1
  Al  Al49  1  0.75000000  0.50000000  0.75000000  1
  Al  Al50  1  0.75000000  0.25000000  0.00000000  1
  Al  Al51  1  0.50000000  0.50000000  0.00000000  1
  Cu  Cu52  1  0.32741400  0.82741400  0.82741400  1
  Cu  Cu53  1  0.17258600  0.67258600  0.82741400  1
  Cu  Cu54  1  0.32741400  0.67258600  0.67258600  1
  Cu  Cu55  1  0.17258600  0.82741400  0.67258600  1
  Cu  Cu56  1  0.17258600  0.17258600  0.67258600  1
  Cu  Cu57  1  0.32741400  0.32741400  0.67258600  1
  Cu  Cu58  1  0.32741400  0.17258600  0.82741400  1
  Cu  Cu59  1  0.17258600  0.32741400  0.82741400  1
  Cu  Cu60  1  0.12075900  0.62075900  0.62075900  1
  Cu  Cu61  1  0.37924100  0.87924100  0.62075900  1
  Cu  Cu62  1  0.12075900  0.87924100  0.87924100  1
  Cu  Cu63  1  0.37924100  0.62075900  0.87924100  1
  Cu  Cu64  1  0.37924100  0.37924100  0.87924100  1
  Cu  Cu65  1  0.12075900  0.12075900  0.87924100  1
  Cu  Cu66  1  0.12075900  0.37924100  0.62075900  1
  Cu  Cu67  1  0.37924100  0.12075900  0.62075900  1
  Cu  Cu68  1  0.32741400  0.32741400  0.32741400  1
  Cu  Cu69  1  0.17258600  0.17258600  0.32741400  1
  Cu  Cu70  1  0.32741400  0.17258600  0.17258600  1
  Cu  Cu71  1  0.17258600  0.32741400  0.17258600  1
  Cu  Cu72  1  0.17258600  0.67258600  0.17258600  1
  Cu  Cu73  1  0.32741400  0.82741400  0.17258600  1
  Cu  Cu74  1  0.32741400  0.67258600  0.32741400  1
  Cu  Cu75  1  0.17258600  0.82741400  0.32741400  1
  Cu  Cu76  1  0.12075900  0.12075900  0.12075900  1
  Cu  Cu77  1  0.37924100  0.37924100  0.12075900  1
  Cu  Cu78  1  0.12075900  0.37924100  0.37924100  1
  Cu  Cu79  1  0.37924100  0.12075900  0.37924100  1
  Cu  Cu80  1  0.37924100  0.87924100  0.37924100  1
  Cu  Cu81  1  0.12075900  0.62075900  0.37924100  1
  Cu  Cu82  1  0.12075900  0.87924100  0.12075900  1
  Cu  Cu83  1  0.37924100  0.62075900  0.12075900  1
  Cu  Cu84  1  0.82741400  0.82741400  0.32741400  1
  Cu  Cu85  1  0.67258600  0.67258600  0.32741400  1
  Cu  Cu86  1  0.82741400  0.67258600  0.17258600  1
  Cu  Cu87  1  0.67258600  0.82741400  0.17258600  1
  Cu  Cu88  1  0.67258600  0.17258600  0.17258600  1
  Cu  Cu89  1  0.82741400  0.32741400  0.17258600  1
  Cu  Cu90  1  0.82741400  0.17258600  0.32741400  1
  Cu  Cu91  1  0.67258600  0.32741400  0.32741400  1
  Cu  Cu92  1  0.62075900  0.62075900  0.12075900  1
  Cu  Cu93  1  0.87924100  0.87924100  0.12075900  1
  Cu  Cu94  1  0.62075900  0.87924100  0.37924100  1
  Cu  Cu95  1  0.87924100  0.62075900  0.37924100  1
  Cu  Cu96  1  0.87924100  0.37924100  0.37924100  1
  Cu  Cu97  1  0.62075900  0.12075900  0.37924100  1
  Cu  Cu98  1  0.62075900  0.37924100  0.12075900  1
  Cu  Cu99  1  0.87924100  0.12075900  0.12075900  1
  Cu  Cu100  1  0.82741400  0.32741400  0.82741400  1
  Cu  Cu101  1  0.67258600  0.17258600  0.82741400  1
  Cu  Cu102  1  0.82741400  0.17258600  0.67258600  1
  Cu  Cu103  1  0.67258600  0.32741400  0.67258600  1
  Cu  Cu104  1  0.67258600  0.67258600  0.67258600  1
  Cu  Cu105  1  0.82741400  0.82741400  0.67258600  1
  Cu  Cu106  1  0.82741400  0.67258600  0.82741400  1
  Cu  Cu107  1  0.67258600  0.82741400  0.82741400  1
  Cu  Cu108  1  0.62075900  0.12075900  0.62075900  1
  Cu  Cu109  1  0.87924100  0.37924100  0.62075900  1
  Cu  Cu110  1  0.62075900  0.37924100  0.87924100  1
  Cu  Cu111  1  0.87924100  0.12075900  0.87924100  1
  Cu  Cu112  1  0.87924100  0.87924100  0.87924100  1
  Cu  Cu113  1  0.62075900  0.62075900  0.87924100  1
  Cu  Cu114  1  0.62075900  0.87924100  0.62075900  1
  Cu  Cu115  1  0.87924100  0.62075900  0.62075900  1
