# generated using pymatgen
data_Pa2SbTe
_symmetry_space_group_name_H-M   'P 1'
_cell_length_a   7.43767800
_cell_length_b   7.43767800
_cell_length_c   7.43767800
_cell_angle_alpha   90.00000000
_cell_angle_beta   90.00000000
_cell_angle_gamma   90.00000000
_symmetry_Int_Tables_number   1
_chemical_formula_structural   Pa2SbTe
_chemical_formula_sum   'Pa8 Sb4 Te4'
_cell_volume   411.44531115
_cell_formula_units_Z   4
loop_
 _symmetry_equiv_pos_site_id
 _symmetry_equiv_pos_as_xyz
  1  'x, y, z'
loop_
 _atom_site_type_symbol
 _atom_site_label
 _atom_site_symmetry_multiplicity
 _atom_site_fract_x
 _atom_site_fract_y
 _atom_site_fract_z
 _atom_site_occupancy
  Pa  Pa0  1  0.25000000  0.75000000  0.75000000  1
  Pa  Pa1  1  0.25000000  0.25000000  0.75000000  1
  Pa  Pa2  1  0.25000000  0.25000000  0.25000000  1
  Pa  Pa3  1  0.25000000  0.75000000  0.25000000  1
  Pa  Pa4  1  0.75000000  0.75000000  0.25000000  1
  Pa  Pa5  1  0.75000000  0.25000000  0.25000000  1
  Pa  Pa6  1  0.75000000  0.25000000  0.75000000  1
  Pa  Pa7  1  0.75000000  0.75000000  0.75000000  1
  Sb  Sb8  1  0.50000000  0.00000000  0.00000000  1
  Sb  Sb9  1  0.50000000  0.50000000  0.50000000  1
  Sb  Sb10  1  0.00000000  0.00000000  0.50000000  1
  Sb  Sb11  1  0.00000000  0.50000000  0.00000000  1
  Te  Te12  1  0.00000000  0.00000000  0.00000000  1
  Te  Te13  1  0.00000000  0.50000000  0.50000000  1
  Te  Te14  1  0.50000000  0.00000000  0.50000000  1
  Te  Te15  1  0.50000000  0.50000000  0.00000000  1
