# generated using pymatgen
data_CaTl2Cd
_symmetry_space_group_name_H-M   'P 1'
_cell_length_a   7.61812600
_cell_length_b   7.61812600
_cell_length_c   7.61812600
_cell_angle_alpha   90.00000000
_cell_angle_beta   90.00000000
_cell_angle_gamma   90.00000000
_symmetry_Int_Tables_number   1
_chemical_formula_structural   CaTl2Cd
_chemical_formula_sum   'Ca4 Tl8 Cd4'
_cell_volume   442.12437022
_cell_formula_units_Z   4
loop_
 _symmetry_equiv_pos_site_id
 _symmetry_equiv_pos_as_xyz
  1  'x, y, z'
loop_
 _atom_site_type_symbol
 _atom_site_label
 _atom_site_symmetry_multiplicity
 _atom_site_fract_x
 _atom_site_fract_y
 _atom_site_fract_z
 _atom_site_occupancy
  Ca  Ca0  1  0.50000000  0.00000000  0.00000000  1
  Ca  Ca1  1  0.50000000  0.50000000  0.50000000  1
  Ca  Ca2  1  0.00000000  0.00000000  0.50000000  1
  Ca  Ca3  1  0.00000000  0.50000000  0.00000000  1
  Tl  Tl4  1  0.25000000  0.75000000  0.75000000  1
  Tl  Tl5  1  0.25000000  0.25000000  0.75000000  1
  Tl  Tl6  1  0.25000000  0.25000000  0.25000000  1
  Tl  Tl7  1  0.25000000  0.75000000  0.25000000  1
  Tl  Tl8  1  0.75000000  0.75000000  0.25000000  1
  Tl  Tl9  1  0.75000000  0.25000000  0.25000000  1
  Tl  Tl10  1  0.75000000  0.25000000  0.75000000  1
  Tl  Tl11  1  0.75000000  0.75000000  0.75000000  1
  Cd  Cd12  1  0.00000000  0.00000000  0.00000000  1
  Cd  Cd13  1  0.00000000  0.50000000  0.50000000  1
  Cd  Cd14  1  0.50000000  0.00000000  0.50000000  1
  Cd  Cd15  1  0.50000000  0.50000000  0.00000000  1
