# generated using pymatgen
data_LiFeSiO4
_symmetry_space_group_name_H-M   'P 1'
_cell_length_a   18.15351600
_cell_length_b   9.93553400
_cell_length_c   17.29286117
_cell_angle_alpha   90.00000000
_cell_angle_beta   112.96303148
_cell_angle_gamma   90.00000000
_symmetry_Int_Tables_number   1
_chemical_formula_structural   LiFeSiO4
_chemical_formula_sum   'Li32 Fe32 Si32 O128'
_cell_volume   2871.86315609
_cell_formula_units_Z   32
loop_
 _symmetry_equiv_pos_site_id
 _symmetry_equiv_pos_as_xyz
  1  'x, y, z'
loop_
 _atom_site_type_symbol
 _atom_site_label
 _atom_site_symmetry_multiplicity
 _atom_site_fract_x
 _atom_site_fract_y
 _atom_site_fract_z
 _atom_site_occupancy
  Li  Li0  1  0.89830950  0.52653450  0.81529100  1
  Li  Li1  1  0.64019200  0.71734900  0.31201000  1
  Li  Li2  1  0.73273900  0.54607000  0.56614000  1
  Li  Li3  1  0.69319250  0.08272250  0.56311500  1
  Li  Li4  1  0.48246000  0.20471000  0.06583700  1
  Li  Li5  1  0.44348750  0.66705550  0.06310900  1
  Li  Li6  1  0.68970000  0.80809200  0.81324800  1
  Li  Li7  1  0.64019200  0.28265100  0.81201000  1
  Li  Li8  1  0.43494750  0.43530150  0.31197400  1
  Li  Li9  1  0.39830950  0.97346550  0.31529100  1
  Li  Li10  1  0.48246000  0.79529000  0.56583700  1
  Li  Li11  1  0.44348750  0.33294450  0.56310900  1
  Li  Li12  1  0.23273900  0.95393000  0.06614000  1
  Li  Li13  1  0.19319250  0.41727750  0.06311500  1
  Li  Li14  1  0.43494750  0.56469850  0.81197400  1
  Li  Li15  1  0.18970000  0.69190800  0.31324800  1
  Li  Li16  1  0.39830950  0.02653450  0.81529100  1
  Li  Li17  1  0.14019200  0.21734900  0.31201000  1
  Li  Li18  1  0.23273900  0.04607000  0.56614000  1
  Li  Li19  1  0.19319250  0.58272250  0.56311500  1
  Li  Li20  1  0.98246000  0.70471000  0.06583700  1
  Li  Li21  1  0.94348750  0.16705550  0.06310900  1
  Li  Li22  1  0.18970000  0.30809200  0.81324800  1
  Li  Li23  1  0.14019200  0.78265100  0.81201000  1
  Li  Li24  1  0.93494750  0.93530150  0.31197400  1
  Li  Li25  1  0.89830950  0.47346550  0.31529100  1
  Li  Li26  1  0.98246000  0.29529000  0.56583700  1
  Li  Li27  1  0.94348750  0.83294450  0.56310900  1
  Li  Li28  1  0.73273900  0.45393000  0.06614000  1
  Li  Li29  1  0.69319250  0.91727750  0.06311500  1
  Li  Li30  1  0.93494750  0.06469850  0.81197400  1
  Li  Li31  1  0.68970000  0.19190800  0.31324800  1
  Fe  Fe32  1  0.87557950  0.82231850  0.87833700  1
  Fe  Fe33  1  0.83762100  0.28750200  0.87869700  1
  Fe  Fe34  1  0.62258800  0.42398100  0.38108700  1
  Fe  Fe35  1  0.59139550  0.96760150  0.37415600  1
  Fe  Fe36  1  0.66079200  0.78055300  0.62303100  1
  Fe  Fe37  1  0.62574900  0.31378300  0.62357100  1
  Fe  Fe38  1  0.41002800  0.96877400  0.12444200  1
  Fe  Fe39  1  0.37626250  0.43505550  0.12212100  1
  Fe  Fe40  1  0.62258800  0.57601900  0.88108700  1
  Fe  Fe41  1  0.59139550  0.03239850  0.87415600  1
  Fe  Fe42  1  0.37557950  0.67768150  0.37833700  1
  Fe  Fe43  1  0.33762100  0.21249800  0.37869700  1
  Fe  Fe44  1  0.41002800  0.03122600  0.62444200  1
  Fe  Fe45  1  0.37626250  0.56494450  0.62212100  1
  Fe  Fe46  1  0.16079200  0.71944700  0.12303100  1
  Fe  Fe47  1  0.12574900  0.18621700  0.12357100  1
  Fe  Fe48  1  0.37557950  0.32231850  0.87833700  1
  Fe  Fe49  1  0.33762100  0.78750200  0.87869700  1
  Fe  Fe50  1  0.12258800  0.92398100  0.38108700  1
  Fe  Fe51  1  0.09139550  0.46760150  0.37415600  1
  Fe  Fe52  1  0.16079200  0.28055300  0.62303100  1
  Fe  Fe53  1  0.12574900  0.81378300  0.62357100  1
  Fe  Fe54  1  0.91002800  0.46877400  0.12444200  1
  Fe  Fe55  1  0.87626250  0.93505550  0.12212100  1
  Fe  Fe56  1  0.12258800  0.07601900  0.88108700  1
  Fe  Fe57  1  0.09139550  0.53239850  0.87415600  1
  Fe  Fe58  1  0.87557950  0.17768150  0.37833700  1
  Fe  Fe59  1  0.83762100  0.71249800  0.37869700  1
  Fe  Fe60  1  0.91002800  0.53122600  0.62444200  1
  Fe  Fe61  1  0.87626250  0.06494450  0.62212100  1
  Fe  Fe62  1  0.66079200  0.21944700  0.12303100  1
  Fe  Fe63  1  0.62574900  0.68621700  0.12357100  1
  Si  Si64  1  0.81376300  0.31302300  0.68694500  1
  Si  Si65  1  0.09955900  0.47300200  0.18891800  1
  Si  Si66  1  0.56477400  0.43543200  0.18763100  1
  Si  Si67  1  0.81027550  0.58194250  0.93961600  1
  Si  Si68  1  0.77233150  0.03905750  0.93663900  1
  Si  Si69  1  0.56091100  0.67162300  0.43833300  1
  Si  Si70  1  0.52169750  0.20806550  0.43757400  1
  Si  Si71  1  0.59955900  0.02699800  0.68891800  1
  Si  Si72  1  0.56477400  0.56456800  0.68763100  1
  Si  Si73  1  0.35251550  0.72007350  0.19017800  1
  Si  Si74  1  0.31376300  0.18697700  0.18694500  1
  Si  Si75  1  0.56091100  0.32837700  0.93833300  1
  Si  Si76  1  0.52169750  0.79193450  0.93757400  1
  Si  Si77  1  0.31027550  0.91805750  0.43961600  1
  Si  Si78  1  0.27233150  0.46094250  0.43663900  1
  Si  Si79  1  0.35251550  0.27992650  0.69017800  1
  Si  Si80  1  0.31376300  0.81302300  0.68694500  1
  Si  Si81  1  0.59955900  0.97300200  0.18891800  1
  Si  Si82  1  0.06477400  0.93543200  0.18763100  1
  Si  Si83  1  0.31027550  0.08194250  0.93961600  1
  Si  Si84  1  0.27233150  0.53905750  0.93663900  1
  Si  Si85  1  0.06091100  0.17162300  0.43833300  1
  Si  Si86  1  0.02169750  0.70806550  0.43757400  1
  Si  Si87  1  0.09955900  0.52699800  0.68891800  1
  Si  Si88  1  0.06477400  0.06456800  0.68763100  1
  Si  Si89  1  0.85251550  0.22007350  0.19017800  1
  Si  Si90  1  0.81376300  0.68697700  0.18694500  1
  Si  Si91  1  0.06091100  0.82837700  0.93833300  1
  Si  Si92  1  0.02169750  0.29193450  0.93757400  1
  Si  Si93  1  0.81027550  0.41805750  0.43961600  1
  Si  Si94  1  0.77233150  0.96094250  0.43663900  1
  Si  Si95  1  0.85251550  0.77992650  0.69017800  1
  O  O96  1  0.80106800  0.20021000  0.61264400  1
  O  O97  1  0.94349750  0.25091150  0.95911600  1
  O  O98  1  0.86355450  0.71543350  0.78226900  1
  O  O99  1  0.84239950  0.22999250  0.77665700  1
  O  O100  1  0.88275550  0.69462150  0.96329700  1
  O  O101  1  0.82200500  0.47501200  0.87204400  1
  O  O102  1  0.76161800  0.73675600  0.62284100  1
  O  O103  1  0.55132650  0.54953250  0.11369600  1
  O  O104  1  0.69481600  0.00335100  0.45944000  1
  O  O105  1  0.61160650  0.03669950  0.28145200  1
  O  O106  1  0.58966400  0.51841900  0.27740400  1
  O  O107  1  0.78734350  0.93133350  0.87098900  1
  O  O108  1  0.63428200  0.56026200  0.46218600  1
  O  O109  1  0.72762350  0.39334850  0.65696000  1
  O  O110  1  0.57174300  0.78048000  0.37087600  1
  O  O111  1  0.75502850  0.19117050  0.89451500  1
  O  O112  1  0.50920250  0.01700650  0.12145500  1
  O  O113  1  0.66370100  0.96483300  0.65197300  1
  O  O114  1  0.53324450  0.31755450  0.37141900  1
  O  O115  1  0.60255950  0.20967650  0.52487600  1
  O  O116  1  0.47849950  0.35460550  0.15699000  1
  O  O117  1  0.63479800  0.67958600  0.70196400  1
  O  O118  1  0.61528450  0.19003450  0.70261600  1
  O  O119  1  0.56796900  0.74997800  0.52440100  1
  O  O120  1  0.72226400  0.65671700  0.89761100  1
  O  O121  1  0.50831500  0.05722100  0.39372800  1
  O  O122  1  0.41480100  0.78346700  0.15090100  1
  O  O123  1  0.35294750  0.54044150  0.02434600  1
  O  O124  1  0.55132650  0.45046750  0.61369600  1
  O  O125  1  0.69481600  0.99664900  0.95944000  1
  O  O126  1  0.61160650  0.96330050  0.78145200  1
  O  O127  1  0.58966400  0.48158100  0.77740400  1
  O  O128  1  0.37087000  0.55710200  0.20493000  1
  O  O129  1  0.38184550  0.06850950  0.20199900  1
  O  O130  1  0.47429850  0.59229350  0.39784500  1
  O  O131  1  0.31766200  0.00142100  0.02524700  1
  O  O132  1  0.63428200  0.43973800  0.96218600  1
  O  O133  1  0.57174300  0.21952000  0.87087600  1
  O  O134  1  0.30106800  0.29979000  0.11264400  1
  O  O135  1  0.50920250  0.98299350  0.62145500  1
  O  O136  1  0.44349750  0.24908850  0.45911600  1
  O  O137  1  0.36355450  0.78456650  0.28226900  1
  O  O138  1  0.34239950  0.27000750  0.27665700  1
  O  O139  1  0.53324450  0.68244550  0.87141900  1
  O  O140  1  0.47849950  0.64539450  0.65699000  1
  O  O141  1  0.38275550  0.80537850  0.46329700  1
  O  O142  1  0.50831500  0.94277900  0.89372800  1
  O  O143  1  0.32200500  0.02498800  0.37204400  1
  O  O144  1  0.26161800  0.76324400  0.12284100  1
  O  O145  1  0.41480100  0.21653300  0.65090100  1
  O  O146  1  0.28734350  0.56866650  0.37098900  1
  O  O147  1  0.35294750  0.45955850  0.52434600  1
  O  O148  1  0.22762350  0.10665150  0.15696000  1
  O  O149  1  0.37087000  0.44289800  0.70493000  1
  O  O150  1  0.38184550  0.93149050  0.70199900  1
  O  O151  1  0.47429850  0.40770650  0.89784500  1
  O  O152  1  0.31766200  0.99857900  0.52524700  1
  O  O153  1  0.25502850  0.30882950  0.39451500  1
  O  O154  1  0.16370100  0.53516700  0.15197300  1
  O  O155  1  0.10255950  0.29032350  0.02487600  1
  O  O156  1  0.13479800  0.82041400  0.20196400  1
  O  O157  1  0.11528450  0.30996550  0.20261600  1
  O  O158  1  0.06796900  0.75002200  0.02440100  1
  O  O159  1  0.22226400  0.84328300  0.39761100  1
  O  O160  1  0.30106800  0.70021000  0.61264400  1
  O  O161  1  0.44349750  0.75091150  0.95911600  1
  O  O162  1  0.36355450  0.21543350  0.78226900  1
  O  O163  1  0.34239950  0.72999250  0.77665700  1
  O  O164  1  0.38275550  0.19462150  0.96329700  1
  O  O165  1  0.32200500  0.97501200  0.87204400  1
  O  O166  1  0.26161800  0.23675600  0.62284100  1
  O  O167  1  0.05132650  0.04953250  0.11369600  1
  O  O168  1  0.19481600  0.50335100  0.45944000  1
  O  O169  1  0.11160650  0.53669950  0.28145200  1
  O  O170  1  0.08966400  0.01841900  0.27740400  1
  O  O171  1  0.28734350  0.43133350  0.87098900  1
  O  O172  1  0.13428200  0.06026200  0.46218600  1
  O  O173  1  0.22762350  0.89334850  0.65696000  1
  O  O174  1  0.07174300  0.28048000  0.37087600  1
  O  O175  1  0.25502850  0.69117050  0.89451500  1
  O  O176  1  0.00920250  0.51700650  0.12145500  1
  O  O177  1  0.16370100  0.46483300  0.65197300  1
  O  O178  1  0.03324450  0.81755450  0.37141900  1
  O  O179  1  0.10255950  0.70967650  0.52487600  1
  O  O180  1  0.97849950  0.85460550  0.15699000  1
  O  O181  1  0.13479800  0.17958600  0.70196400  1
  O  O182  1  0.11528450  0.69003450  0.70261600  1
  O  O183  1  0.06796900  0.24997800  0.52440100  1
  O  O184  1  0.22226400  0.15671700  0.89761100  1
  O  O185  1  0.00831500  0.55722100  0.39372800  1
  O  O186  1  0.91480100  0.28346700  0.15090100  1
  O  O187  1  0.85294750  0.04044150  0.02434600  1
  O  O188  1  0.05132650  0.95046750  0.61369600  1
  O  O189  1  0.19481600  0.49664900  0.95944000  1
  O  O190  1  0.11160650  0.46330050  0.78145200  1
  O  O191  1  0.08966400  0.98158100  0.77740400  1
  O  O192  1  0.87087000  0.05710200  0.20493000  1
  O  O193  1  0.88184550  0.56850950  0.20199900  1
  O  O194  1  0.97429850  0.09229350  0.39784500  1
  O  O195  1  0.81766200  0.50142100  0.02524700  1
  O  O196  1  0.13428200  0.93973800  0.96218600  1
  O  O197  1  0.07174300  0.71952000  0.87087600  1
  O  O198  1  0.80106800  0.79979000  0.11264400  1
  O  O199  1  0.00920250  0.48299350  0.62145500  1
  O  O200  1  0.94349750  0.74908850  0.45911600  1
  O  O201  1  0.86355450  0.28456650  0.28226900  1
  O  O202  1  0.84239950  0.77000750  0.27665700  1
  O  O203  1  0.03324450  0.18244550  0.87141900  1
  O  O204  1  0.97849950  0.14539450  0.65699000  1
  O  O205  1  0.88275550  0.30537850  0.46329700  1
  O  O206  1  0.00831500  0.44277900  0.89372800  1
  O  O207  1  0.82200500  0.52498800  0.37204400  1
  O  O208  1  0.76161800  0.26324400  0.12284100  1
  O  O209  1  0.91480100  0.71653300  0.65090100  1
  O  O210  1  0.78734350  0.06866650  0.37098900  1
  O  O211  1  0.85294750  0.95955850  0.52434600  1
  O  O212  1  0.72762350  0.60665150  0.15696000  1
  O  O213  1  0.87087000  0.94289800  0.70493000  1
  O  O214  1  0.88184550  0.43149050  0.70199900  1
  O  O215  1  0.97429850  0.90770650  0.89784500  1
  O  O216  1  0.81766200  0.49857900  0.52524700  1
  O  O217  1  0.75502850  0.80882950  0.39451500  1
  O  O218  1  0.66370100  0.03516700  0.15197300  1
  O  O219  1  0.60255950  0.79032350  0.02487600  1
  O  O220  1  0.63479800  0.32041400  0.20196400  1
  O  O221  1  0.61528450  0.80996550  0.20261600  1
  O  O222  1  0.56796900  0.25002200  0.02440100  1
  O  O223  1  0.72226400  0.34328300  0.39761100  1
