# generated using pymatgen
data_TmGePd
_symmetry_space_group_name_H-M   'P 1'
_cell_length_a   4.41085000
_cell_length_b   7.58551000
_cell_length_c   20.70225200
_cell_angle_alpha   90.00000000
_cell_angle_beta   90.00000000
_cell_angle_gamma   90.00000000
_symmetry_Int_Tables_number   1
_chemical_formula_structural   TmGePd
_chemical_formula_sum   'Tm12 Ge12 Pd12'
_cell_volume   692.66726707
_cell_formula_units_Z   12
loop_
 _symmetry_equiv_pos_site_id
 _symmetry_equiv_pos_as_xyz
  1  'x, y, z'
loop_
 _atom_site_type_symbol
 _atom_site_label
 _atom_site_symmetry_multiplicity
 _atom_site_fract_x
 _atom_site_fract_y
 _atom_site_fract_z
 _atom_site_occupancy
  Tm  Tm0  1  0.00000000  0.53299700  0.00000000  1
  Tm  Tm1  1  0.00000000  0.53515000  0.33281800  1
  Tm  Tm2  1  0.50000000  0.03515000  0.16718200  1
  Tm  Tm3  1  0.50000000  0.95178100  0.00000000  1
  Tm  Tm4  1  0.00000000  0.45709250  0.16642550  1
  Tm  Tm5  1  0.50000000  0.95709250  0.33357450  1
  Tm  Tm6  1  0.50000000  0.03299700  0.50000000  1
  Tm  Tm7  1  0.50000000  0.03515000  0.83281800  1
  Tm  Tm8  1  0.00000000  0.53515000  0.66718200  1
  Tm  Tm9  1  0.00000000  0.45178100  0.50000000  1
  Tm  Tm10  1  0.50000000  0.95709250  0.66642550  1
  Tm  Tm11  1  0.00000000  0.45709250  0.83357450  1
  Ge  Ge12  1  0.00000000  0.15570200  0.40718000  1
  Ge  Ge13  1  0.50000000  0.65570200  0.09282000  1
  Ge  Ge14  1  0.00000000  0.83944600  0.23697000  1
  Ge  Ge15  1  0.50000000  0.33944600  0.26303000  1
  Ge  Ge16  1  0.00000000  0.15336700  0.06514300  1
  Ge  Ge17  1  0.50000000  0.65336700  0.43485700  1
  Ge  Ge18  1  0.50000000  0.65570200  0.90718000  1
  Ge  Ge19  1  0.00000000  0.15570200  0.59282000  1
  Ge  Ge20  1  0.50000000  0.33944600  0.73697000  1
  Ge  Ge21  1  0.00000000  0.83944600  0.76303000  1
  Ge  Ge22  1  0.50000000  0.65336700  0.56514300  1
  Ge  Ge23  1  0.00000000  0.15336700  0.93485700  1
  Pd  Pd24  1  0.00000000  0.82172900  0.42727700  1
  Pd  Pd25  1  0.50000000  0.32172900  0.07272300  1
  Pd  Pd26  1  0.00000000  0.16839550  0.26853650  1
  Pd  Pd27  1  0.50000000  0.66839550  0.23146350  1
  Pd  Pd28  1  0.00000000  0.82473000  0.10510900  1
  Pd  Pd29  1  0.50000000  0.32473000  0.39489100  1
  Pd  Pd30  1  0.50000000  0.32172900  0.92727700  1
  Pd  Pd31  1  0.00000000  0.82172900  0.57272300  1
  Pd  Pd32  1  0.50000000  0.66839550  0.76853650  1
  Pd  Pd33  1  0.00000000  0.16839550  0.73146350  1
  Pd  Pd34  1  0.50000000  0.32473000  0.60510900  1
  Pd  Pd35  1  0.00000000  0.82473000  0.89489100  1
