# generated using pymatgen
data_CsPdBr3
_symmetry_space_group_name_H-M   'P 1'
_cell_length_a   7.53952639
_cell_length_b   7.54225423
_cell_length_c   5.33332006
_cell_angle_alpha   90.00000000
_cell_angle_beta   90.00000000
_cell_angle_gamma   90.00000000
_symmetry_Int_Tables_number   1
_chemical_formula_structural   CsPdBr3
_chemical_formula_sum   'Cs2 Pd2 Br6'
_cell_volume   303.27937721
_cell_formula_units_Z   2
loop_
 _symmetry_equiv_pos_site_id
 _symmetry_equiv_pos_as_xyz
  1  'x, y, z'
loop_
 _atom_site_type_symbol
 _atom_site_label
 _atom_site_symmetry_multiplicity
 _atom_site_fract_x
 _atom_site_fract_y
 _atom_site_fract_z
 _atom_site_occupancy
  Cs  Cs0  1  0.99228212  0.00000000  0.00000000  1
  Cs  Cs1  1  0.49228212  0.50000000  0.00000000  1
  Pd  Pd2  1  0.98576699  0.50000000  0.50000000  1
  Pd  Pd3  1  0.48576699  0.00000000  0.50000000  1
  Br  Br4  1  0.98815585  0.50000000  0.00000000  1
  Br  Br5  1  0.23885214  0.25376770  0.50000000  1
  Br  Br6  1  0.23885214  0.74623230  0.50000000  1
  Br  Br7  1  0.48815585  0.00000000  0.00000000  1
  Br  Br8  1  0.73885214  0.75376770  0.50000000  1
  Br  Br9  1  0.73885214  0.24623230  0.50000000  1
