# generated using pymatgen
data_Nd3Cr
_symmetry_space_group_name_H-M   'P 1'
_cell_length_a   4.84309200
_cell_length_b   4.84309200
_cell_length_c   10.20146200
_cell_angle_alpha   90.00000000
_cell_angle_beta   90.00000000
_cell_angle_gamma   90.00000000
_symmetry_Int_Tables_number   1
_chemical_formula_structural   Nd3Cr
_chemical_formula_sum   'Nd6 Cr2'
_cell_volume   239.28080123
_cell_formula_units_Z   2
loop_
 _symmetry_equiv_pos_site_id
 _symmetry_equiv_pos_as_xyz
  1  'x, y, z'
loop_
 _atom_site_type_symbol
 _atom_site_label
 _atom_site_symmetry_multiplicity
 _atom_site_fract_x
 _atom_site_fract_y
 _atom_site_fract_z
 _atom_site_occupancy
  Nd  Nd0  1  0.00000000  0.50000000  0.25000000  1
  Nd  Nd1  1  0.50000000  0.00000000  0.25000000  1
  Nd  Nd2  1  0.50000000  0.50000000  0.00000000  1
  Nd  Nd3  1  0.50000000  0.00000000  0.75000000  1
  Nd  Nd4  1  0.00000000  0.50000000  0.75000000  1
  Nd  Nd5  1  0.00000000  0.00000000  0.50000000  1
  Cr  Cr6  1  0.00000000  0.00000000  0.00000000  1
  Cr  Cr7  1  0.50000000  0.50000000  0.50000000  1
