# generated using pymatgen
data_MgNi
_symmetry_space_group_name_H-M   'P 1'
_cell_length_a   4.99920817
_cell_length_b   4.99920817
_cell_length_c   12.07926534
_cell_angle_alpha   90.00000000
_cell_angle_beta   90.00000000
_cell_angle_gamma   120.00000000
_symmetry_Int_Tables_number   1
_chemical_formula_structural   MgNi
_chemical_formula_sum   'Mg9 Ni9'
_cell_volume   261.44093955
_cell_formula_units_Z   9
loop_
 _symmetry_equiv_pos_site_id
 _symmetry_equiv_pos_as_xyz
  1  'x, y, z'
loop_
 _atom_site_type_symbol
 _atom_site_label
 _atom_site_symmetry_multiplicity
 _atom_site_fract_x
 _atom_site_fract_y
 _atom_site_fract_z
 _atom_site_occupancy
  Mg  Mg0  1  0.00000000  0.00000000  0.00000000  1
  Mg  Mg1  1  0.33333333  0.66666667  0.04704667  1
  Mg  Mg2  1  0.33333333  0.66666667  0.28628667  1
  Mg  Mg3  1  0.66666667  0.33333333  0.33333333  1
  Mg  Mg4  1  0.00000000  0.00000000  0.38038000  1
  Mg  Mg5  1  0.00000000  0.00000000  0.61962000  1
  Mg  Mg6  1  0.33333333  0.66666667  0.66666667  1
  Mg  Mg7  1  0.66666667  0.33333333  0.71371333  1
  Mg  Mg8  1  0.66666667  0.33333333  0.95295333  1
  Ni  Ni9  1  0.83333333  0.16666667  0.16666667  1
  Ni  Ni10  1  0.16666667  0.33333333  0.83333333  1
  Ni  Ni11  1  0.33333333  0.16666667  0.16666667  1
  Ni  Ni12  1  0.50000000  0.50000000  0.50000000  1
  Ni  Ni13  1  0.83333333  0.66666667  0.16666667  1
  Ni  Ni14  1  0.00000000  0.50000000  0.50000000  1
  Ni  Ni15  1  0.16666667  0.83333333  0.83333333  1
  Ni  Ni16  1  0.50000000  0.00000000  0.50000000  1
  Ni  Ni17  1  0.66666667  0.83333333  0.83333333  1
