# generated using pymatgen
data_Sc6Al16Ir7
_symmetry_space_group_name_H-M   'P 1'
_cell_length_a   12.37646000
_cell_length_b   12.37646000
_cell_length_c   12.37646000
_cell_angle_alpha   90.00000000
_cell_angle_beta   90.00000000
_cell_angle_gamma   90.00000000
_symmetry_Int_Tables_number   1
_chemical_formula_structural   Sc6Al16Ir7
_chemical_formula_sum   'Sc24 Al64 Ir28'
_cell_volume   1895.78606945
_cell_formula_units_Z   4
loop_
 _symmetry_equiv_pos_site_id
 _symmetry_equiv_pos_as_xyz
  1  'x, y, z'
loop_
 _atom_site_type_symbol
 _atom_site_label
 _atom_site_symmetry_multiplicity
 _atom_site_fract_x
 _atom_site_fract_y
 _atom_site_fract_z
 _atom_site_occupancy
  Sc  Sc0  1  0.79380800  0.00000000  0.00000000  1
  Sc  Sc1  1  0.20619200  0.00000000  0.00000000  1
  Sc  Sc2  1  0.50000000  0.29380800  0.00000000  1
  Sc  Sc3  1  0.00000000  0.00000000  0.79380800  1
  Sc  Sc4  1  0.50000000  0.70619200  0.00000000  1
  Sc  Sc5  1  0.50000000  0.00000000  0.70619200  1
  Sc  Sc6  1  0.79380800  0.50000000  0.50000000  1
  Sc  Sc7  1  0.20619200  0.50000000  0.50000000  1
  Sc  Sc8  1  0.50000000  0.79380800  0.50000000  1
  Sc  Sc9  1  0.00000000  0.50000000  0.29380800  1
  Sc  Sc10  1  0.50000000  0.20619200  0.50000000  1
  Sc  Sc11  1  0.50000000  0.50000000  0.20619200  1
  Sc  Sc12  1  0.29380800  0.00000000  0.50000000  1
  Sc  Sc13  1  0.70619200  0.00000000  0.50000000  1
  Sc  Sc14  1  0.00000000  0.29380800  0.50000000  1
  Sc  Sc15  1  0.50000000  0.00000000  0.29380800  1
  Sc  Sc16  1  0.00000000  0.70619200  0.50000000  1
  Sc  Sc17  1  0.00000000  0.00000000  0.20619200  1
  Sc  Sc18  1  0.29380800  0.50000000  0.00000000  1
  Sc  Sc19  1  0.70619200  0.50000000  0.00000000  1
  Sc  Sc20  1  0.00000000  0.79380800  0.00000000  1
  Sc  Sc21  1  0.50000000  0.50000000  0.79380800  1
  Sc  Sc22  1  0.00000000  0.20619200  0.00000000  1
  Sc  Sc23  1  0.00000000  0.50000000  0.70619200  1
  Al  Al24  1  0.33487600  0.33487600  0.83487600  1
  Al  Al25  1  0.16512400  0.16512400  0.83487600  1
  Al  Al26  1  0.33487600  0.16512400  0.66512400  1
  Al  Al27  1  0.16512400  0.33487600  0.66512400  1
  Al  Al28  1  0.16512400  0.66512400  0.66512400  1
  Al  Al29  1  0.33487600  0.83487600  0.66512400  1
  Al  Al30  1  0.33487600  0.66512400  0.83487600  1
  Al  Al31  1  0.16512400  0.83487600  0.83487600  1
  Al  Al32  1  0.11996900  0.11996900  0.61996900  1
  Al  Al33  1  0.88003100  0.88003100  0.61996900  1
  Al  Al34  1  0.61996900  0.88003100  0.88003100  1
  Al  Al35  1  0.38003100  0.11996900  0.88003100  1
  Al  Al36  1  0.38003100  0.88003100  0.88003100  1
  Al  Al37  1  0.61996900  0.11996900  0.88003100  1
  Al  Al38  1  0.11996900  0.88003100  0.61996900  1
  Al  Al39  1  0.88003100  0.11996900  0.61996900  1
  Al  Al40  1  0.33487600  0.83487600  0.33487600  1
  Al  Al41  1  0.16512400  0.66512400  0.33487600  1
  Al  Al42  1  0.33487600  0.66512400  0.16512400  1
  Al  Al43  1  0.16512400  0.83487600  0.16512400  1
  Al  Al44  1  0.16512400  0.16512400  0.16512400  1
  Al  Al45  1  0.33487600  0.33487600  0.16512400  1
  Al  Al46  1  0.33487600  0.16512400  0.33487600  1
  Al  Al47  1  0.16512400  0.33487600  0.33487600  1
  Al  Al48  1  0.11996900  0.61996900  0.11996900  1
  Al  Al49  1  0.88003100  0.38003100  0.11996900  1
  Al  Al50  1  0.61996900  0.38003100  0.38003100  1
  Al  Al51  1  0.38003100  0.61996900  0.38003100  1
  Al  Al52  1  0.38003100  0.38003100  0.38003100  1
  Al  Al53  1  0.61996900  0.61996900  0.38003100  1
  Al  Al54  1  0.11996900  0.38003100  0.11996900  1
  Al  Al55  1  0.88003100  0.61996900  0.11996900  1
  Al  Al56  1  0.83487600  0.33487600  0.33487600  1
  Al  Al57  1  0.66512400  0.16512400  0.33487600  1
  Al  Al58  1  0.83487600  0.16512400  0.16512400  1
  Al  Al59  1  0.66512400  0.33487600  0.16512400  1
  Al  Al60  1  0.66512400  0.66512400  0.16512400  1
  Al  Al61  1  0.83487600  0.83487600  0.16512400  1
  Al  Al62  1  0.83487600  0.66512400  0.33487600  1
  Al  Al63  1  0.66512400  0.83487600  0.33487600  1
  Al  Al64  1  0.61996900  0.11996900  0.11996900  1
  Al  Al65  1  0.38003100  0.88003100  0.11996900  1
  Al  Al66  1  0.11996900  0.88003100  0.38003100  1
  Al  Al67  1  0.88003100  0.11996900  0.38003100  1
  Al  Al68  1  0.88003100  0.88003100  0.38003100  1
  Al  Al69  1  0.11996900  0.11996900  0.38003100  1
  Al  Al70  1  0.61996900  0.88003100  0.11996900  1
  Al  Al71  1  0.38003100  0.11996900  0.11996900  1
  Al  Al72  1  0.83487600  0.83487600  0.83487600  1
  Al  Al73  1  0.66512400  0.66512400  0.83487600  1
  Al  Al74  1  0.83487600  0.66512400  0.66512400  1
  Al  Al75  1  0.66512400  0.83487600  0.66512400  1
  Al  Al76  1  0.66512400  0.16512400  0.66512400  1
  Al  Al77  1  0.83487600  0.33487600  0.66512400  1
  Al  Al78  1  0.83487600  0.16512400  0.83487600  1
  Al  Al79  1  0.66512400  0.33487600  0.83487600  1
  Al  Al80  1  0.61996900  0.61996900  0.61996900  1
  Al  Al81  1  0.38003100  0.38003100  0.61996900  1
  Al  Al82  1  0.11996900  0.38003100  0.88003100  1
  Al  Al83  1  0.88003100  0.61996900  0.88003100  1
  Al  Al84  1  0.88003100  0.38003100  0.88003100  1
  Al  Al85  1  0.11996900  0.61996900  0.88003100  1
  Al  Al86  1  0.61996900  0.38003100  0.61996900  1
  Al  Al87  1  0.38003100  0.61996900  0.61996900  1
  Ir  Ir88  1  0.50000000  0.00000000  0.00000000  1
  Ir  Ir89  1  0.00000000  0.25000000  0.75000000  1
  Ir  Ir90  1  0.00000000  0.75000000  0.75000000  1
  Ir  Ir91  1  0.25000000  0.00000000  0.75000000  1
  Ir  Ir92  1  0.25000000  0.75000000  0.00000000  1
  Ir  Ir93  1  0.75000000  0.00000000  0.75000000  1
  Ir  Ir94  1  0.25000000  0.25000000  0.00000000  1
  Ir  Ir95  1  0.50000000  0.50000000  0.50000000  1
  Ir  Ir96  1  0.00000000  0.75000000  0.25000000  1
  Ir  Ir97  1  0.00000000  0.25000000  0.25000000  1
  Ir  Ir98  1  0.25000000  0.50000000  0.25000000  1
  Ir  Ir99  1  0.25000000  0.25000000  0.50000000  1
  Ir  Ir100  1  0.75000000  0.50000000  0.25000000  1
  Ir  Ir101  1  0.25000000  0.75000000  0.50000000  1
  Ir  Ir102  1  0.00000000  0.00000000  0.50000000  1
  Ir  Ir103  1  0.50000000  0.25000000  0.25000000  1
  Ir  Ir104  1  0.50000000  0.75000000  0.25000000  1
  Ir  Ir105  1  0.75000000  0.00000000  0.25000000  1
  Ir  Ir106  1  0.75000000  0.75000000  0.50000000  1
  Ir  Ir107  1  0.25000000  0.00000000  0.25000000  1
  Ir  Ir108  1  0.75000000  0.25000000  0.50000000  1
  Ir  Ir109  1  0.00000000  0.50000000  0.00000000  1
  Ir  Ir110  1  0.50000000  0.75000000  0.75000000  1
  Ir  Ir111  1  0.50000000  0.25000000  0.75000000  1
  Ir  Ir112  1  0.75000000  0.50000000  0.75000000  1
  Ir  Ir113  1  0.75000000  0.25000000  0.00000000  1
  Ir  Ir114  1  0.25000000  0.50000000  0.75000000  1
  Ir  Ir115  1  0.75000000  0.75000000  0.00000000  1
