# generated using pymatgen
data_EuGeAu
_symmetry_space_group_name_H-M   'P 1'
_cell_length_a   4.64189800
_cell_length_b   7.43121600
_cell_length_c   7.96692200
_cell_angle_alpha   90.00000000
_cell_angle_beta   90.00000000
_cell_angle_gamma   90.00000000
_symmetry_Int_Tables_number   1
_chemical_formula_structural   EuGeAu
_chemical_formula_sum   'Eu4 Ge4 Au4'
_cell_volume   274.81854966
_cell_formula_units_Z   4
loop_
 _symmetry_equiv_pos_site_id
 _symmetry_equiv_pos_as_xyz
  1  'x, y, z'
loop_
 _atom_site_type_symbol
 _atom_site_label
 _atom_site_symmetry_multiplicity
 _atom_site_fract_x
 _atom_site_fract_y
 _atom_site_fract_z
 _atom_site_occupancy
  Eu  Eu0  1  0.50000000  0.00000000  0.20316700  1
  Eu  Eu1  1  0.00000000  0.00000000  0.63175200  1
  Eu  Eu2  1  0.00000000  0.50000000  0.70316700  1
  Eu  Eu3  1  0.50000000  0.50000000  0.13175200  1
  Ge  Ge4  1  0.00000000  0.31158500  0.33342600  1
  Ge  Ge5  1  0.00000000  0.68841500  0.33342600  1
  Ge  Ge6  1  0.50000000  0.81158500  0.83342600  1
  Ge  Ge7  1  0.50000000  0.18841500  0.83342600  1
  Au  Au8  1  0.50000000  0.28215700  0.50194900  1
  Au  Au9  1  0.50000000  0.71784300  0.50194900  1
  Au  Au10  1  0.00000000  0.78215700  0.00194900  1
  Au  Au11  1  0.00000000  0.21784300  0.00194900  1
