# generated using pymatgen
data_CaTcO3
_symmetry_space_group_name_H-M   'P 1'
_cell_length_a   5.57504063
_cell_length_b   5.56291799
_cell_length_c   3.93870942
_cell_angle_alpha   90.00000000
_cell_angle_beta   90.19540568
_cell_angle_gamma   90.00000000
_symmetry_Int_Tables_number   1
_chemical_formula_structural   CaTcO3
_chemical_formula_sum   'Ca2 Tc2 O6'
_cell_volume   122.15242994
_cell_formula_units_Z   2
loop_
 _symmetry_equiv_pos_site_id
 _symmetry_equiv_pos_as_xyz
  1  'x, y, z'
loop_
 _atom_site_type_symbol
 _atom_site_label
 _atom_site_symmetry_multiplicity
 _atom_site_fract_x
 _atom_site_fract_y
 _atom_site_fract_z
 _atom_site_occupancy
  Ca  Ca0  1  0.99508194  0.00000000  0.00165331  1
  Ca  Ca1  1  0.49508194  0.50000000  0.00165331  1
  Tc  Tc2  1  0.49820982  0.00000000  0.51320051  1
  Tc  Tc3  1  0.99820982  0.50000000  0.51320051  1
  O  O4  1  0.24771694  0.24932660  0.51658705  1
  O  O5  1  0.50077284  0.00000000  0.01371293  1
  O  O6  1  0.74771694  0.25067340  0.51658705  1
  O  O7  1  0.74771694  0.74932660  0.51658705  1
  O  O8  1  0.00077284  0.50000000  0.01371293  1
  O  O9  1  0.24771694  0.75067340  0.51658705  1
