# generated using pymatgen
data_Na3Cd2IrO6
_symmetry_space_group_name_H-M   'P 1'
_cell_length_a   5.79463600
_cell_length_b   9.99580400
_cell_length_c   5.73982229
_cell_angle_alpha   90.00000000
_cell_angle_beta   110.32719593
_cell_angle_gamma   90.00000000
_symmetry_Int_Tables_number   1
_chemical_formula_structural   Na3Cd2IrO6
_chemical_formula_sum   'Na6 Cd4 Ir2 O12'
_cell_volume   311.75788115
_cell_formula_units_Z   2
loop_
 _symmetry_equiv_pos_site_id
 _symmetry_equiv_pos_as_xyz
  1  'x, y, z'
loop_
 _atom_site_type_symbol
 _atom_site_label
 _atom_site_symmetry_multiplicity
 _atom_site_fract_x
 _atom_site_fract_y
 _atom_site_fract_z
 _atom_site_occupancy
  Na  Na0  1  0.50000000  0.00000000  0.50000000  1
  Na  Na1  1  0.50000000  0.33558000  0.50000000  1
  Na  Na2  1  0.50000000  0.66442000  0.50000000  1
  Na  Na3  1  0.00000000  0.50000000  0.50000000  1
  Na  Na4  1  0.00000000  0.83558000  0.50000000  1
  Na  Na5  1  0.00000000  0.16442000  0.50000000  1
  Cd  Cd6  1  0.50000000  0.16740000  0.00000000  1
  Cd  Cd7  1  0.50000000  0.83260000  0.00000000  1
  Cd  Cd8  1  0.00000000  0.66740000  0.00000000  1
  Cd  Cd9  1  0.00000000  0.33260000  0.00000000  1
  Ir  Ir10  1  0.00000000  0.00000000  0.00000000  1
  Ir  Ir11  1  0.50000000  0.50000000  0.00000000  1
  O  O12  1  0.78129300  0.00000000  0.20477900  1
  O  O13  1  0.21870700  0.00000000  0.79522100  1
  O  O14  1  0.21465550  0.14440950  0.21466900  1
  O  O15  1  0.78534450  0.14440950  0.78533100  1
  O  O16  1  0.21465550  0.85559050  0.21466900  1
  O  O17  1  0.78534450  0.85559050  0.78533100  1
  O  O18  1  0.28129300  0.50000000  0.20477900  1
  O  O19  1  0.71870700  0.50000000  0.79522100  1
  O  O20  1  0.71465550  0.64440950  0.21466900  1
  O  O21  1  0.28534450  0.64440950  0.78533100  1
  O  O22  1  0.71465550  0.35559050  0.21466900  1
  O  O23  1  0.28534450  0.35559050  0.78533100  1
