# generated using pymatgen
data_Mn3Co2Sn(PO4)6
_symmetry_space_group_name_H-M   'P 1'
_cell_length_a   8.64131803
_cell_length_b   8.64131803
_cell_length_c   20.85165689
_cell_angle_alpha   90.00000000
_cell_angle_beta   90.00000000
_cell_angle_gamma   120.00000000
_symmetry_Int_Tables_number   1
_chemical_formula_structural   Mn3Co2Sn(PO4)6
_chemical_formula_sum   'Mn9 Co6 Sn3 P18 O72'
_cell_volume   1348.43861008
_cell_formula_units_Z   3
loop_
 _symmetry_equiv_pos_site_id
 _symmetry_equiv_pos_as_xyz
  1  'x, y, z'
loop_
 _atom_site_type_symbol
 _atom_site_label
 _atom_site_symmetry_multiplicity
 _atom_site_fract_x
 _atom_site_fract_y
 _atom_site_fract_z
 _atom_site_occupancy
  Mn  Mn0  1  0.33333333  0.66666667  0.02288467  1
  Mn  Mn1  1  0.33333333  0.66666667  0.81102867  1
  Mn  Mn2  1  0.33333333  0.66666667  0.30977167  1
  Mn  Mn3  1  0.00000000  0.00000000  0.35621800  1
  Mn  Mn4  1  0.00000000  0.00000000  0.14436200  1
  Mn  Mn5  1  0.00000000  0.00000000  0.64310500  1
  Mn  Mn6  1  0.66666667  0.33333333  0.68955133  1
  Mn  Mn7  1  0.66666667  0.33333333  0.47769533  1
  Mn  Mn8  1  0.66666667  0.33333333  0.97643833  1
  Co  Co9  1  0.33333333  0.66666667  0.67069367  1
  Co  Co10  1  0.33333333  0.66666667  0.16666767  1
  Co  Co11  1  0.00000000  0.00000000  0.00402700  1
  Co  Co12  1  0.00000000  0.00000000  0.50000100  1
  Co  Co13  1  0.66666667  0.33333333  0.33736033  1
  Co  Co14  1  0.66666667  0.33333333  0.83333433  1
  Sn  Sn15  1  0.33333333  0.66666667  0.52316867  1
  Sn  Sn16  1  0.00000000  0.00000000  0.85650200  1
  Sn  Sn17  1  0.66666667  0.33333333  0.18983533  1
  P  P18  1  0.66655167  0.63143433  0.08140133  1
  P  P19  1  0.96488267  0.33344833  0.08140133  1
  P  P20  1  0.36856567  0.03511733  0.08140133  1
  P  P21  1  0.29026133  0.29424567  0.25062267  1
  P  P22  1  0.70575433  0.99601567  0.25062267  1
  P  P23  1  0.00398433  0.70973867  0.25062267  1
  P  P24  1  0.33321833  0.96476767  0.41473467  1
  P  P25  1  0.63154933  0.66678167  0.41473467  1
  P  P26  1  0.03523233  0.36845067  0.41473467  1
  P  P27  1  0.95692800  0.62757900  0.58395600  1
  P  P28  1  0.37242100  0.32934900  0.58395600  1
  P  P29  1  0.67065100  0.04307200  0.58395600  1
  P  P30  1  0.99988500  0.29810100  0.74806800  1
  P  P31  1  0.29821600  0.00011500  0.74806800  1
  P  P32  1  0.70189900  0.70178400  0.74806800  1
  P  P33  1  0.62359467  0.96091233  0.91728933  1
  P  P34  1  0.03908767  0.66268233  0.91728933  1
  P  P35  1  0.33731767  0.37640533  0.91728933  1
  O  O36  1  0.53062033  0.66498167  0.35486067  1
  O  O37  1  0.13436133  0.46937967  0.35486067  1
  O  O38  1  0.33501833  0.86563867  0.35486067  1
  O  O39  1  0.83432033  0.82108967  0.07572267  1
  O  O40  1  0.66740500  0.53886800  0.14438600  1
  O  O41  1  0.49743733  0.65249867  0.08929367  1
  O  O42  1  0.98676933  0.16567967  0.07572267  1
  O  O43  1  0.15506133  0.50256267  0.08929367  1
  O  O44  1  0.19902633  0.19796467  0.18867767  1
  O  O45  1  0.34750133  0.84493867  0.08929367  1
  O  O46  1  0.48245467  0.31631233  0.25891633  1
  O  O47  1  0.80203533  0.00106167  0.18867767  1
  O  O48  1  0.87146300  0.33259500  0.14438600  1
  O  O49  1  0.17891033  0.01323067  0.07572267  1
  O  O50  1  0.31393767  0.48474533  0.24281533  1
  O  O51  1  0.46113200  0.12853700  0.14438600  1
  O  O52  1  0.51525467  0.82919233  0.24281533  1
  O  O53  1  0.68368767  0.16614233  0.25891633  1
  O  O54  1  0.17080767  0.68606233  0.24281533  1
  O  O55  1  0.99893833  0.80097367  0.18867767  1
  O  O56  1  0.83385767  0.51754533  0.25891633  1
  O  O57  1  0.34032033  0.47439767  0.97856467  1
  O  O58  1  0.52560233  0.86592267  0.97856467  1
  O  O59  1  0.13407733  0.65967967  0.97856467  1
  O  O60  1  0.19728700  0.99831500  0.68819400  1
  O  O61  1  0.80102800  0.80271300  0.68819400  1
  O  O62  1  0.00168500  0.19897200  0.68819400  1
  O  O63  1  0.50098700  0.15442300  0.40905600  1
  O  O64  1  0.33407167  0.87220133  0.47771933  1
  O  O65  1  0.16410400  0.98583200  0.42262700  1
  O  O66  1  0.65343600  0.49901300  0.40905600  1
  O  O67  1  0.82172800  0.83589600  0.42262700  1
  O  O68  1  0.86569300  0.53129800  0.52201100  1
  O  O69  1  0.01416800  0.17827200  0.42262700  1
  O  O70  1  0.14912133  0.64964567  0.59224967  1
  O  O71  1  0.46870200  0.33439500  0.52201100  1
  O  O72  1  0.53812967  0.66592833  0.47771933  1
  O  O73  1  0.84557700  0.34656400  0.40905600  1
  O  O74  1  0.98060433  0.81807867  0.57614867  1
  O  O75  1  0.12779867  0.46187033  0.47771933  1
  O  O76  1  0.18192133  0.16252567  0.57614867  1
  O  O77  1  0.35035433  0.49947567  0.59224967  1
  O  O78  1  0.83747433  0.01939567  0.57614867  1
  O  O79  1  0.66560500  0.13430700  0.52201100  1
  O  O80  1  0.50052433  0.85087867  0.59224967  1
  O  O81  1  0.00698700  0.80773100  0.31189800  1
  O  O82  1  0.19226900  0.19925600  0.31189800  1
  O  O83  1  0.80074400  0.99301300  0.31189800  1
  O  O84  1  0.86395367  0.33164833  0.02152733  1
  O  O85  1  0.46769467  0.13604633  0.02152733  1
  O  O86  1  0.66835167  0.53230533  0.02152733  1
  O  O87  1  0.16765367  0.48775633  0.74238933  1
  O  O88  1  0.00073833  0.20553467  0.81105267  1
  O  O89  1  0.83077067  0.31916533  0.75596033  1
  O  O90  1  0.32010267  0.83234633  0.74238933  1
  O  O91  1  0.48839467  0.16922933  0.75596033  1
  O  O92  1  0.53235967  0.86463133  0.85534433  1
  O  O93  1  0.68083467  0.51160533  0.75596033  1
  O  O94  1  0.81578800  0.98297900  0.92558300  1
  O  O95  1  0.13536867  0.66772833  0.85534433  1
  O  O96  1  0.20479633  0.99926167  0.81105267  1
  O  O97  1  0.51224367  0.67989733  0.74238933  1
  O  O98  1  0.64727100  0.15141200  0.90948200  1
  O  O99  1  0.79446533  0.79520367  0.81105267  1
  O  O100  1  0.84858800  0.49585900  0.90948200  1
  O  O101  1  0.01702100  0.83280900  0.92558300  1
  O  O102  1  0.50414100  0.35272900  0.90948200  1
  O  O103  1  0.33227167  0.46764033  0.85534433  1
  O  O104  1  0.16719100  0.18421200  0.92558300  1
  O  O105  1  0.67365367  0.14106433  0.64523133  1
  O  O106  1  0.85893567  0.53258933  0.64523133  1
  O  O107  1  0.46741067  0.32634633  0.64523133  1
