# generated using pymatgen
data_Pr(BRu)2
_symmetry_space_group_name_H-M   'P 1'
_cell_length_a   6.53502400
_cell_length_b   9.19256400
_cell_length_c   10.06457400
_cell_angle_alpha   90.00000000
_cell_angle_beta   90.00000000
_cell_angle_gamma   90.00000000
_symmetry_Int_Tables_number   1
_chemical_formula_structural   Pr(BRu)2
_chemical_formula_sum   'Pr8 B16 Ru16'
_cell_volume   604.61545796
_cell_formula_units_Z   8
loop_
 _symmetry_equiv_pos_site_id
 _symmetry_equiv_pos_as_xyz
  1  'x, y, z'
loop_
 _atom_site_type_symbol
 _atom_site_label
 _atom_site_symmetry_multiplicity
 _atom_site_fract_x
 _atom_site_fract_y
 _atom_site_fract_z
 _atom_site_occupancy
  Pr  Pr0  1  0.00000000  0.00000000  0.00000000  1
  Pr  Pr1  1  0.75000000  0.75000000  0.25000000  1
  Pr  Pr2  1  0.00000000  0.50000000  0.50000000  1
  Pr  Pr3  1  0.75000000  0.25000000  0.75000000  1
  Pr  Pr4  1  0.50000000  0.00000000  0.50000000  1
  Pr  Pr5  1  0.25000000  0.75000000  0.75000000  1
  Pr  Pr6  1  0.50000000  0.50000000  0.00000000  1
  Pr  Pr7  1  0.25000000  0.25000000  0.25000000  1
  B  B8  1  0.50000000  0.18147600  0.00000000  1
  B  B9  1  0.50000000  0.81852400  0.00000000  1
  B  B10  1  0.75000000  0.43147600  0.25000000  1
  B  B11  1  0.75000000  0.06852400  0.25000000  1
  B  B12  1  0.50000000  0.68147600  0.50000000  1
  B  B13  1  0.50000000  0.31852400  0.50000000  1
  B  B14  1  0.75000000  0.93147600  0.75000000  1
  B  B15  1  0.75000000  0.56852400  0.75000000  1
  B  B16  1  0.00000000  0.18147600  0.50000000  1
  B  B17  1  0.00000000  0.81852400  0.50000000  1
  B  B18  1  0.25000000  0.43147600  0.75000000  1
  B  B19  1  0.25000000  0.06852400  0.75000000  1
  B  B20  1  0.00000000  0.68147600  0.00000000  1
  B  B21  1  0.00000000  0.31852400  0.00000000  1
  B  B22  1  0.25000000  0.93147600  0.25000000  1
  B  B23  1  0.25000000  0.56852400  0.25000000  1
  Ru  Ru24  1  0.75000000  0.25000000  0.11345500  1
  Ru  Ru25  1  0.50000000  0.00000000  0.13654500  1
  Ru  Ru26  1  0.00000000  0.00000000  0.36345500  1
  Ru  Ru27  1  0.75000000  0.25000000  0.38654500  1
  Ru  Ru28  1  0.75000000  0.75000000  0.61345500  1
  Ru  Ru29  1  0.50000000  0.50000000  0.63654500  1
  Ru  Ru30  1  0.00000000  0.50000000  0.86345500  1
  Ru  Ru31  1  0.75000000  0.75000000  0.88654500  1
  Ru  Ru32  1  0.25000000  0.25000000  0.61345500  1
  Ru  Ru33  1  0.00000000  0.00000000  0.63654500  1
  Ru  Ru34  1  0.50000000  0.00000000  0.86345500  1
  Ru  Ru35  1  0.25000000  0.25000000  0.88654500  1
  Ru  Ru36  1  0.25000000  0.75000000  0.11345500  1
  Ru  Ru37  1  0.00000000  0.50000000  0.13654500  1
  Ru  Ru38  1  0.50000000  0.50000000  0.36345500  1
  Ru  Ru39  1  0.25000000  0.75000000  0.38654500  1
