# generated using pymatgen
data_SmNiB4
_symmetry_space_group_name_H-M   'P 1'
_cell_length_a   7.62439000
_cell_length_b   7.62439000
_cell_length_c   8.59640600
_cell_angle_alpha   90.00000000
_cell_angle_beta   90.00000000
_cell_angle_gamma   90.00000000
_symmetry_Int_Tables_number   1
_chemical_formula_structural   SmNiB4
_chemical_formula_sum   'Sm8 Ni8 B32'
_cell_volume   499.72045273
_cell_formula_units_Z   8
loop_
 _symmetry_equiv_pos_site_id
 _symmetry_equiv_pos_as_xyz
  1  'x, y, z'
loop_
 _atom_site_type_symbol
 _atom_site_label
 _atom_site_symmetry_multiplicity
 _atom_site_fract_x
 _atom_site_fract_y
 _atom_site_fract_z
 _atom_site_occupancy
  Sm  Sm0  1  0.00000000  0.50000000  0.25000000  1
  Sm  Sm1  1  0.50000000  0.00000000  0.25000000  1
  Sm  Sm2  1  0.00000000  0.00000000  0.20441300  1
  Sm  Sm3  1  0.00000000  0.00000000  0.79558700  1
  Sm  Sm4  1  0.50000000  0.00000000  0.75000000  1
  Sm  Sm5  1  0.00000000  0.50000000  0.75000000  1
  Sm  Sm6  1  0.50000000  0.50000000  0.70441300  1
  Sm  Sm7  1  0.50000000  0.50000000  0.29558700  1
  Ni  Ni8  1  0.27186800  0.50000000  0.00000000  1
  Ni  Ni9  1  0.22813200  0.00000000  0.50000000  1
  Ni  Ni10  1  0.00000000  0.22813200  0.50000000  1
  Ni  Ni11  1  0.50000000  0.27186800  0.00000000  1
  Ni  Ni12  1  0.77186800  0.00000000  0.50000000  1
  Ni  Ni13  1  0.72813200  0.50000000  0.00000000  1
  Ni  Ni14  1  0.50000000  0.72813200  0.00000000  1
  Ni  Ni15  1  0.00000000  0.77186800  0.50000000  1
  B  B16  1  0.26553450  0.26553450  0.15212050  1
  B  B17  1  0.23446550  0.23446550  0.65212050  1
  B  B18  1  0.76553450  0.23446550  0.34787950  1
  B  B19  1  0.23446550  0.76553450  0.34787950  1
  B  B20  1  0.23446550  0.23446550  0.34787950  1
  B  B21  1  0.26553450  0.26553450  0.84787950  1
  B  B22  1  0.76553450  0.23446550  0.65212050  1
  B  B23  1  0.23446550  0.76553450  0.65212050  1
  B  B24  1  0.27582550  0.11204650  0.00000000  1
  B  B25  1  0.22417450  0.38795350  0.50000000  1
  B  B26  1  0.77582550  0.38795350  0.50000000  1
  B  B27  1  0.72417450  0.11204650  0.00000000  1
  B  B28  1  0.38795350  0.22417450  0.50000000  1
  B  B29  1  0.11204650  0.27582550  0.00000000  1
  B  B30  1  0.11204650  0.72417450  0.00000000  1
  B  B31  1  0.38795350  0.77582550  0.50000000  1
  B  B32  1  0.76553450  0.76553450  0.65212050  1
  B  B33  1  0.73446550  0.73446550  0.15212050  1
  B  B34  1  0.26553450  0.73446550  0.84787950  1
  B  B35  1  0.73446550  0.26553450  0.84787950  1
  B  B36  1  0.73446550  0.73446550  0.84787950  1
  B  B37  1  0.76553450  0.76553450  0.34787950  1
  B  B38  1  0.26553450  0.73446550  0.15212050  1
  B  B39  1  0.73446550  0.26553450  0.15212050  1
  B  B40  1  0.77582550  0.61204650  0.50000000  1
  B  B41  1  0.72417450  0.88795350  0.00000000  1
  B  B42  1  0.27582550  0.88795350  0.00000000  1
  B  B43  1  0.22417450  0.61204650  0.50000000  1
  B  B44  1  0.88795350  0.72417450  0.00000000  1
  B  B45  1  0.61204650  0.77582550  0.50000000  1
  B  B46  1  0.61204650  0.22417450  0.50000000  1
  B  B47  1  0.88795350  0.27582550  0.00000000  1
