# generated using pymatgen
data_HfTl3
_symmetry_space_group_name_H-M   'P 1'
_cell_length_a   4.44471200
_cell_length_b   4.44471200
_cell_length_c   10.11248800
_cell_angle_alpha   90.00000000
_cell_angle_beta   90.00000000
_cell_angle_gamma   90.00000000
_symmetry_Int_Tables_number   1
_chemical_formula_structural   HfTl3
_chemical_formula_sum   'Hf2 Tl6'
_cell_volume   199.77690035
_cell_formula_units_Z   2
loop_
 _symmetry_equiv_pos_site_id
 _symmetry_equiv_pos_as_xyz
  1  'x, y, z'
loop_
 _atom_site_type_symbol
 _atom_site_label
 _atom_site_symmetry_multiplicity
 _atom_site_fract_x
 _atom_site_fract_y
 _atom_site_fract_z
 _atom_site_occupancy
  Hf  Hf0  1  0.00000000  0.00000000  0.00000000  1
  Hf  Hf1  1  0.50000000  0.50000000  0.50000000  1
  Tl  Tl2  1  0.00000000  0.50000000  0.25000000  1
  Tl  Tl3  1  0.50000000  0.00000000  0.25000000  1
  Tl  Tl4  1  0.50000000  0.50000000  0.00000000  1
  Tl  Tl5  1  0.50000000  0.00000000  0.75000000  1
  Tl  Tl6  1  0.00000000  0.50000000  0.75000000  1
  Tl  Tl7  1  0.00000000  0.00000000  0.50000000  1
