# generated using pymatgen
data_LiNdSn2
_symmetry_space_group_name_H-M   'P 1'
_cell_length_a   4.51024400
_cell_length_b   19.16938200
_cell_length_c   4.55409900
_cell_angle_alpha   90.00000000
_cell_angle_beta   90.00000000
_cell_angle_gamma   90.00000000
_symmetry_Int_Tables_number   1
_chemical_formula_structural   LiNdSn2
_chemical_formula_sum   'Li4 Nd4 Sn8'
_cell_volume   393.74097894
_cell_formula_units_Z   4
loop_
 _symmetry_equiv_pos_site_id
 _symmetry_equiv_pos_as_xyz
  1  'x, y, z'
loop_
 _atom_site_type_symbol
 _atom_site_label
 _atom_site_symmetry_multiplicity
 _atom_site_fract_x
 _atom_site_fract_y
 _atom_site_fract_z
 _atom_site_occupancy
  Li  Li0  1  0.50000000  0.82417800  0.25000000  1
  Li  Li1  1  0.00000000  0.67582200  0.75000000  1
  Li  Li2  1  0.00000000  0.32417800  0.25000000  1
  Li  Li3  1  0.50000000  0.17582200  0.75000000  1
  Nd  Nd4  1  0.50000000  0.60637100  0.25000000  1
  Nd  Nd5  1  0.00000000  0.89362900  0.75000000  1
  Nd  Nd6  1  0.00000000  0.10637100  0.25000000  1
  Nd  Nd7  1  0.50000000  0.39362900  0.75000000  1
  Sn  Sn8  1  0.00000000  0.74951600  0.25000000  1
  Sn  Sn9  1  0.50000000  0.75048400  0.75000000  1
  Sn  Sn10  1  0.50000000  0.95612100  0.25000000  1
  Sn  Sn11  1  0.00000000  0.54387900  0.75000000  1
  Sn  Sn12  1  0.50000000  0.24951600  0.25000000  1
  Sn  Sn13  1  0.00000000  0.25048400  0.75000000  1
  Sn  Sn14  1  0.00000000  0.45612100  0.25000000  1
  Sn  Sn15  1  0.50000000  0.04387900  0.75000000  1
