# generated using pymatgen
data_HoNiGe2
_symmetry_space_group_name_H-M   'P 1'
_cell_length_a   4.08314600
_cell_length_b   16.80690400
_cell_length_c   4.17377300
_cell_angle_alpha   90.00000000
_cell_angle_beta   90.00000000
_cell_angle_gamma   90.00000000
_symmetry_Int_Tables_number   1
_chemical_formula_structural   HoNiGe2
_chemical_formula_sum   'Ho4 Ni4 Ge8'
_cell_volume   286.42535093
_cell_formula_units_Z   4
loop_
 _symmetry_equiv_pos_site_id
 _symmetry_equiv_pos_as_xyz
  1  'x, y, z'
loop_
 _atom_site_type_symbol
 _atom_site_label
 _atom_site_symmetry_multiplicity
 _atom_site_fract_x
 _atom_site_fract_y
 _atom_site_fract_z
 _atom_site_occupancy
  Ho  Ho0  1  0.00000000  0.89210900  0.25000000  1
  Ho  Ho1  1  0.50000000  0.60789100  0.75000000  1
  Ho  Ho2  1  0.50000000  0.39210900  0.25000000  1
  Ho  Ho3  1  0.00000000  0.10789100  0.75000000  1
  Ni  Ni4  1  0.00000000  0.67710300  0.25000000  1
  Ni  Ni5  1  0.50000000  0.82289700  0.75000000  1
  Ni  Ni6  1  0.50000000  0.17710300  0.25000000  1
  Ni  Ni7  1  0.00000000  0.32289700  0.75000000  1
  Ge  Ge8  1  0.00000000  0.74844000  0.75000000  1
  Ge  Ge9  1  0.00000000  0.54076900  0.25000000  1
  Ge  Ge10  1  0.50000000  0.95923100  0.75000000  1
  Ge  Ge11  1  0.50000000  0.75156000  0.25000000  1
  Ge  Ge12  1  0.50000000  0.24844000  0.75000000  1
  Ge  Ge13  1  0.50000000  0.04076900  0.25000000  1
  Ge  Ge14  1  0.00000000  0.45923100  0.75000000  1
  Ge  Ge15  1  0.00000000  0.25156000  0.25000000  1
