# generated using pymatgen
data_AuBrO2
_symmetry_space_group_name_H-M   'P 1'
_cell_length_a   4.84458800
_cell_length_b   21.43084600
_cell_length_c   3.62052582
_cell_angle_alpha   90.00000000
_cell_angle_beta   94.78525004
_cell_angle_gamma   90.00000000
_symmetry_Int_Tables_number   1
_chemical_formula_structural   AuBrO2
_chemical_formula_sum   'Au4 Br4 O8'
_cell_volume   374.58585924
_cell_formula_units_Z   4
loop_
 _symmetry_equiv_pos_site_id
 _symmetry_equiv_pos_as_xyz
  1  'x, y, z'
loop_
 _atom_site_type_symbol
 _atom_site_label
 _atom_site_symmetry_multiplicity
 _atom_site_fract_x
 _atom_site_fract_y
 _atom_site_fract_z
 _atom_site_occupancy
  Au  Au0  1  0.25000000  0.75000000  0.00000000  1
  Au  Au1  1  0.75000000  0.75000000  0.50000000  1
  Au  Au2  1  0.75000000  0.25000000  0.00000000  1
  Au  Au3  1  0.25000000  0.25000000  0.50000000  1
  Br  Br4  1  0.00000000  0.65458000  0.75000000  1
  Br  Br5  1  0.50000000  0.84542000  0.25000000  1
  Br  Br6  1  0.50000000  0.15458000  0.75000000  1
  Br  Br7  1  0.00000000  0.34542000  0.25000000  1
  O  O8  1  0.87224000  0.96904000  0.73573000  1
  O  O9  1  0.37224000  0.53096000  0.23573000  1
  O  O10  1  0.62776000  0.53096000  0.26427000  1
  O  O11  1  0.12776000  0.96904000  0.76427000  1
  O  O12  1  0.37224000  0.46904000  0.73573000  1
  O  O13  1  0.87224000  0.03096000  0.23573000  1
  O  O14  1  0.12776000  0.03096000  0.26427000  1
  O  O15  1  0.62776000  0.46904000  0.76427000  1
