# generated using pymatgen
data_Lu2Fe17C3
_symmetry_space_group_name_H-M   'P 1'
_cell_length_a   8.55427352
_cell_length_b   8.55427352
_cell_length_c   12.50234205
_cell_angle_alpha   90.00000000
_cell_angle_beta   90.00000000
_cell_angle_gamma   120.00000000
_symmetry_Int_Tables_number   1
_chemical_formula_structural   Lu2Fe17C3
_chemical_formula_sum   'Lu6 Fe51 C9'
_cell_volume   792.29747715
_cell_formula_units_Z   3
loop_
 _symmetry_equiv_pos_site_id
 _symmetry_equiv_pos_as_xyz
  1  'x, y, z'
loop_
 _atom_site_type_symbol
 _atom_site_label
 _atom_site_symmetry_multiplicity
 _atom_site_fract_x
 _atom_site_fract_y
 _atom_site_fract_z
 _atom_site_occupancy
  Lu  Lu0  1  0.33333333  0.66666667  0.00882967  1
  Lu  Lu1  1  0.33333333  0.66666667  0.32450367  1
  Lu  Lu2  1  0.00000000  0.00000000  0.34216300  1
  Lu  Lu3  1  0.00000000  0.00000000  0.65783700  1
  Lu  Lu4  1  0.66666667  0.33333333  0.67549633  1
  Lu  Lu5  1  0.66666667  0.33333333  0.99117033  1
  Fe  Fe6  1  0.33333333  0.66666667  0.76283467  1
  Fe  Fe7  1  0.33333333  0.66666667  0.57049867  1
  Fe  Fe8  1  0.95006767  0.61673433  0.33333333  1
  Fe  Fe9  1  0.00000000  0.71659900  0.00000000  1
  Fe  Fe10  1  0.71659900  1.00000000  0.00000000  1
  Fe  Fe11  1  0.38326567  0.04993233  0.33333333  1
  Fe  Fe12  1  0.00000000  0.28340100  0.00000000  1
  Fe  Fe13  1  0.28340100  1.00000000  0.00000000  1
  Fe  Fe14  1  0.50262333  0.00524667  0.15234767  1
  Fe  Fe15  1  0.50262333  0.49737667  0.15234767  1
  Fe  Fe16  1  0.99475333  0.49737667  0.15234767  1
  Fe  Fe17  1  0.67191333  0.83595667  0.18098567  1
  Fe  Fe18  1  0.16404333  0.83595667  0.18098567  1
  Fe  Fe19  1  0.16404333  0.32808667  0.18098567  1
  Fe  Fe20  1  0.16666667  0.83333333  0.83333333  1
  Fe  Fe21  1  0.33333333  0.16666667  0.16666667  1
  Fe  Fe22  1  0.83333333  0.66666667  0.16666667  1
  Fe  Fe23  1  0.00000000  0.00000000  0.09616800  1
  Fe  Fe24  1  0.00000000  0.00000000  0.90383200  1
  Fe  Fe25  1  0.61673433  0.95006767  0.66666667  1
  Fe  Fe26  1  0.66666667  0.04993233  0.33333333  1
  Fe  Fe27  1  0.38326567  0.33333333  0.33333333  1
  Fe  Fe28  1  0.04993233  0.38326567  0.66666667  1
  Fe  Fe29  1  0.66666667  0.61673433  0.33333333  1
  Fe  Fe30  1  0.95006767  0.33333333  0.33333333  1
  Fe  Fe31  1  0.16929000  0.33858000  0.48568100  1
  Fe  Fe32  1  0.16929000  0.83071000  0.48568100  1
  Fe  Fe33  1  0.66142000  0.83071000  0.48568100  1
  Fe  Fe34  1  0.33858000  0.16929000  0.51431900  1
  Fe  Fe35  1  0.83071000  0.16929000  0.51431900  1
  Fe  Fe36  1  0.83071000  0.66142000  0.51431900  1
  Fe  Fe37  1  0.83333333  0.16666667  0.16666667  1
  Fe  Fe38  1  0.00000000  0.50000000  0.50000000  1
  Fe  Fe39  1  0.50000000  0.00000000  0.50000000  1
  Fe  Fe40  1  0.66666667  0.33333333  0.42950133  1
  Fe  Fe41  1  0.66666667  0.33333333  0.23716533  1
  Fe  Fe42  1  0.28340100  0.28340100  0.00000000  1
  Fe  Fe43  1  0.33333333  0.38326567  0.66666667  1
  Fe  Fe44  1  0.04993233  0.66666667  0.66666667  1
  Fe  Fe45  1  0.71659900  0.71659900  0.00000000  1
  Fe  Fe46  1  0.33333333  0.95006767  0.66666667  1
  Fe  Fe47  1  0.61673433  0.66666667  0.66666667  1
  Fe  Fe48  1  0.83595667  0.67191333  0.81901433  1
  Fe  Fe49  1  0.83595667  0.16404333  0.81901433  1
  Fe  Fe50  1  0.32808667  0.16404333  0.81901433  1
  Fe  Fe51  1  0.00524667  0.50262333  0.84765233  1
  Fe  Fe52  1  0.49737667  0.50262333  0.84765233  1
  Fe  Fe53  1  0.49737667  0.99475333  0.84765233  1
  Fe  Fe54  1  0.50000000  0.50000000  0.50000000  1
  Fe  Fe55  1  0.66666667  0.83333333  0.83333333  1
  Fe  Fe56  1  0.16666667  0.33333333  0.83333333  1
  C  C57  1  0.16666667  0.83333333  0.33333333  1
  C  C58  1  0.00000000  0.50000000  0.00000000  1
  C  C59  1  0.50000000  0.00000000  0.00000000  1
  C  C60  1  0.83333333  0.16666667  0.66666667  1
  C  C61  1  0.66666667  0.83333333  0.33333333  1
  C  C62  1  0.16666667  0.33333333  0.33333333  1
  C  C63  1  0.50000000  0.50000000  0.00000000  1
  C  C64  1  0.33333333  0.16666667  0.66666667  1
  C  C65  1  0.83333333  0.66666667  0.66666667  1
