# generated using pymatgen
data_YbGa2Pd
_symmetry_space_group_name_H-M   'P 1'
_cell_length_a   4.43507600
_cell_length_b   9.86857600
_cell_length_c   6.88381100
_cell_angle_alpha   90.00000000
_cell_angle_beta   90.00000000
_cell_angle_gamma   90.00000000
_symmetry_Int_Tables_number   1
_chemical_formula_structural   YbGa2Pd
_chemical_formula_sum   'Yb4 Ga8 Pd4'
_cell_volume   301.28984526
_cell_formula_units_Z   4
loop_
 _symmetry_equiv_pos_site_id
 _symmetry_equiv_pos_as_xyz
  1  'x, y, z'
loop_
 _atom_site_type_symbol
 _atom_site_label
 _atom_site_symmetry_multiplicity
 _atom_site_fract_x
 _atom_site_fract_y
 _atom_site_fract_z
 _atom_site_occupancy
  Yb  Yb0  1  0.00000000  0.41637400  0.75000000  1
  Yb  Yb1  1  0.50000000  0.08362600  0.25000000  1
  Yb  Yb2  1  0.50000000  0.91637400  0.75000000  1
  Yb  Yb3  1  0.00000000  0.58362600  0.25000000  1
  Ga  Ga4  1  0.00000000  0.13256100  0.55624200  1
  Ga  Ga5  1  0.50000000  0.36743900  0.05624200  1
  Ga  Ga6  1  0.50000000  0.36743900  0.44375800  1
  Ga  Ga7  1  0.00000000  0.13256100  0.94375800  1
  Ga  Ga8  1  0.50000000  0.63256100  0.55624200  1
  Ga  Ga9  1  0.00000000  0.86743900  0.05624200  1
  Ga  Ga10  1  0.00000000  0.86743900  0.44375800  1
  Ga  Ga11  1  0.50000000  0.63256100  0.94375800  1
  Pd  Pd12  1  0.50000000  0.20358400  0.75000000  1
  Pd  Pd13  1  0.00000000  0.29641600  0.25000000  1
  Pd  Pd14  1  0.00000000  0.70358400  0.75000000  1
  Pd  Pd15  1  0.50000000  0.79641600  0.25000000  1
