# generated using pymatgen
data_ErAlAg2
_symmetry_space_group_name_H-M   'P 1'
_cell_length_a   6.80603600
_cell_length_b   6.80603600
_cell_length_c   6.80603600
_cell_angle_alpha   90.00000000
_cell_angle_beta   90.00000000
_cell_angle_gamma   90.00000000
_symmetry_Int_Tables_number   1
_chemical_formula_structural   ErAlAg2
_chemical_formula_sum   'Er4 Al4 Ag8'
_cell_volume   315.27005738
_cell_formula_units_Z   4
loop_
 _symmetry_equiv_pos_site_id
 _symmetry_equiv_pos_as_xyz
  1  'x, y, z'
loop_
 _atom_site_type_symbol
 _atom_site_label
 _atom_site_symmetry_multiplicity
 _atom_site_fract_x
 _atom_site_fract_y
 _atom_site_fract_z
 _atom_site_occupancy
  Er  Er0  1  0.00000000  0.00000000  0.00000000  1
  Er  Er1  1  0.00000000  0.50000000  0.50000000  1
  Er  Er2  1  0.50000000  0.00000000  0.50000000  1
  Er  Er3  1  0.50000000  0.50000000  0.00000000  1
  Al  Al4  1  0.50000000  0.00000000  0.00000000  1
  Al  Al5  1  0.50000000  0.50000000  0.50000000  1
  Al  Al6  1  0.00000000  0.00000000  0.50000000  1
  Al  Al7  1  0.00000000  0.50000000  0.00000000  1
  Ag  Ag8  1  0.25000000  0.75000000  0.75000000  1
  Ag  Ag9  1  0.25000000  0.25000000  0.75000000  1
  Ag  Ag10  1  0.25000000  0.25000000  0.25000000  1
  Ag  Ag11  1  0.25000000  0.75000000  0.25000000  1
  Ag  Ag12  1  0.75000000  0.75000000  0.25000000  1
  Ag  Ag13  1  0.75000000  0.25000000  0.25000000  1
  Ag  Ag14  1  0.75000000  0.25000000  0.75000000  1
  Ag  Ag15  1  0.75000000  0.75000000  0.75000000  1
