# generated using pymatgen
data_ZnIn3
_symmetry_space_group_name_H-M   'P 1'
_cell_length_a   6.25920600
_cell_length_b   12.66538600
_cell_length_c   5.05886700
_cell_angle_alpha   90.00000000
_cell_angle_beta   90.00000000
_cell_angle_gamma   90.00000000
_symmetry_Int_Tables_number   1
_chemical_formula_structural   ZnIn3
_chemical_formula_sum   'Zn4 In12'
_cell_volume   401.04299695
_cell_formula_units_Z   4
loop_
 _symmetry_equiv_pos_site_id
 _symmetry_equiv_pos_as_xyz
  1  'x, y, z'
loop_
 _atom_site_type_symbol
 _atom_site_label
 _atom_site_symmetry_multiplicity
 _atom_site_fract_x
 _atom_site_fract_y
 _atom_site_fract_z
 _atom_site_occupancy
  Zn  Zn0  1  0.00000000  0.16917300  0.25000000  1
  Zn  Zn1  1  0.50000000  0.33082700  0.75000000  1
  Zn  Zn2  1  0.50000000  0.66917300  0.25000000  1
  Zn  Zn3  1  0.00000000  0.83082700  0.75000000  1
  In  In4  1  0.24831300  0.08006600  0.75000000  1
  In  In5  1  0.00000000  0.31334200  0.75000000  1
  In  In6  1  0.75168700  0.08006600  0.75000000  1
  In  In7  1  0.25168700  0.41993400  0.25000000  1
  In  In8  1  0.50000000  0.18665800  0.25000000  1
  In  In9  1  0.74831300  0.41993400  0.25000000  1
  In  In10  1  0.74831300  0.58006600  0.75000000  1
  In  In11  1  0.50000000  0.81334200  0.75000000  1
  In  In12  1  0.25168700  0.58006600  0.75000000  1
  In  In13  1  0.75168700  0.91993400  0.25000000  1
  In  In14  1  0.00000000  0.68665800  0.25000000  1
  In  In15  1  0.24831300  0.91993400  0.25000000  1
