# generated using pymatgen
data_RbBa3
_symmetry_space_group_name_H-M   'P 1'
_cell_length_a   6.40501000
_cell_length_b   6.40501000
_cell_length_c   13.59294400
_cell_angle_alpha   90.00000000
_cell_angle_beta   90.00000000
_cell_angle_gamma   90.00000000
_symmetry_Int_Tables_number   1
_chemical_formula_structural   RbBa3
_chemical_formula_sum   'Rb2 Ba6'
_cell_volume   557.63901574
_cell_formula_units_Z   2
loop_
 _symmetry_equiv_pos_site_id
 _symmetry_equiv_pos_as_xyz
  1  'x, y, z'
loop_
 _atom_site_type_symbol
 _atom_site_label
 _atom_site_symmetry_multiplicity
 _atom_site_fract_x
 _atom_site_fract_y
 _atom_site_fract_z
 _atom_site_occupancy
  Rb  Rb0  1  0.00000000  0.00000000  0.00000000  1
  Rb  Rb1  1  0.50000000  0.50000000  0.50000000  1
  Ba  Ba2  1  0.00000000  0.50000000  0.25000000  1
  Ba  Ba3  1  0.50000000  0.00000000  0.25000000  1
  Ba  Ba4  1  0.50000000  0.50000000  0.00000000  1
  Ba  Ba5  1  0.50000000  0.00000000  0.75000000  1
  Ba  Ba6  1  0.00000000  0.50000000  0.75000000  1
  Ba  Ba7  1  0.00000000  0.00000000  0.50000000  1
