# generated using pymatgen
data_Np3Be
_symmetry_space_group_name_H-M   'P 1'
_cell_length_a   6.29621800
_cell_length_b   6.29621800
_cell_length_c   6.29621800
_cell_angle_alpha   90.00000000
_cell_angle_beta   90.00000000
_cell_angle_gamma   90.00000000
_symmetry_Int_Tables_number   1
_chemical_formula_structural   Np3Be
_chemical_formula_sum   'Np12 Be4'
_cell_volume   249.59694754
_cell_formula_units_Z   4
loop_
 _symmetry_equiv_pos_site_id
 _symmetry_equiv_pos_as_xyz
  1  'x, y, z'
loop_
 _atom_site_type_symbol
 _atom_site_label
 _atom_site_symmetry_multiplicity
 _atom_site_fract_x
 _atom_site_fract_y
 _atom_site_fract_z
 _atom_site_occupancy
  Np  Np0  1  0.25000000  0.25000000  0.75000000  1
  Np  Np1  1  0.25000000  0.75000000  0.75000000  1
  Np  Np2  1  0.50000000  0.00000000  0.00000000  1
  Np  Np3  1  0.25000000  0.75000000  0.25000000  1
  Np  Np4  1  0.25000000  0.25000000  0.25000000  1
  Np  Np5  1  0.50000000  0.50000000  0.50000000  1
  Np  Np6  1  0.75000000  0.25000000  0.25000000  1
  Np  Np7  1  0.75000000  0.75000000  0.25000000  1
  Np  Np8  1  0.00000000  0.00000000  0.50000000  1
  Np  Np9  1  0.75000000  0.75000000  0.75000000  1
  Np  Np10  1  0.75000000  0.25000000  0.75000000  1
  Np  Np11  1  0.00000000  0.50000000  0.00000000  1
  Be  Be12  1  0.00000000  0.00000000  0.00000000  1
  Be  Be13  1  0.00000000  0.50000000  0.50000000  1
  Be  Be14  1  0.50000000  0.00000000  0.50000000  1
  Be  Be15  1  0.50000000  0.50000000  0.00000000  1
