# generated using pymatgen
data_Sr4IrO6
_symmetry_space_group_name_H-M   'P 1'
_cell_length_a   9.85419290
_cell_length_b   9.85419290
_cell_length_c   11.95858859
_cell_angle_alpha   90.00000000
_cell_angle_beta   90.00000000
_cell_angle_gamma   120.00000000
_symmetry_Int_Tables_number   1
_chemical_formula_structural   Sr4IrO6
_chemical_formula_sum   'Sr24 Ir6 O36'
_cell_volume   1005.66347203
_cell_formula_units_Z   6
loop_
 _symmetry_equiv_pos_site_id
 _symmetry_equiv_pos_as_xyz
  1  'x, y, z'
loop_
 _atom_site_type_symbol
 _atom_site_label
 _atom_site_symmetry_multiplicity
 _atom_site_fract_x
 _atom_site_fract_y
 _atom_site_fract_z
 _atom_site_occupancy
  Sr  Sr0  1  0.00000000  0.00000000  0.75000000  1
  Sr  Sr1  1  0.00000000  0.00000000  0.25000000  1
  Sr  Sr2  1  0.03245267  0.33333333  0.58333333  1
  Sr  Sr3  1  0.66666667  0.69911933  0.58333333  1
  Sr  Sr4  1  0.30088067  0.96754733  0.58333333  1
  Sr  Sr5  1  0.96754733  0.66666667  0.41666667  1
  Sr  Sr6  1  0.33333333  0.30088067  0.41666667  1
  Sr  Sr7  1  0.69911933  0.03245267  0.41666667  1
  Sr  Sr8  1  0.66666667  0.33333333  0.08333333  1
  Sr  Sr9  1  0.66666667  0.33333333  0.58333333  1
  Sr  Sr10  1  0.69911933  0.66666667  0.91666667  1
  Sr  Sr11  1  0.33333333  0.03245267  0.91666667  1
  Sr  Sr12  1  0.96754733  0.30088067  0.91666667  1
  Sr  Sr13  1  0.63421400  0.00000000  0.75000000  1
  Sr  Sr14  1  0.00000000  0.63421400  0.75000000  1
  Sr  Sr15  1  0.36578600  0.36578600  0.75000000  1
  Sr  Sr16  1  0.33333333  0.66666667  0.41666667  1
  Sr  Sr17  1  0.33333333  0.66666667  0.91666667  1
  Sr  Sr18  1  0.36578600  0.00000000  0.25000000  1
  Sr  Sr19  1  0.00000000  0.36578600  0.25000000  1
  Sr  Sr20  1  0.63421400  0.63421400  0.25000000  1
  Sr  Sr21  1  0.30088067  0.33333333  0.08333333  1
  Sr  Sr22  1  0.66666667  0.96754733  0.08333333  1
  Sr  Sr23  1  0.03245267  0.69911933  0.08333333  1
  Ir  Ir24  1  0.00000000  0.00000000  0.50000000  1
  Ir  Ir25  1  0.00000000  0.00000000  0.00000000  1
  Ir  Ir26  1  0.66666667  0.33333333  0.83333333  1
  Ir  Ir27  1  0.66666667  0.33333333  0.33333333  1
  Ir  Ir28  1  0.33333333  0.66666667  0.16666667  1
  Ir  Ir29  1  0.33333333  0.66666667  0.66666667  1
  O  O30  1  0.85169367  0.36069933  0.43288633  1
  O  O31  1  0.63930067  0.49099433  0.43288633  1
  O  O32  1  0.50900567  0.14830633  0.43288633  1
  O  O33  1  0.15766100  0.97263400  0.40044700  1
  O  O34  1  0.02736600  0.18502700  0.40044700  1
  O  O35  1  0.81497300  0.84233900  0.40044700  1
  O  O36  1  0.14830633  0.63930067  0.56711367  1
  O  O37  1  0.36069933  0.50900567  0.56711367  1
  O  O38  1  0.49099433  0.85169367  0.56711367  1
  O  O39  1  0.84233900  0.02736600  0.59955300  1
  O  O40  1  0.18502700  0.15766100  0.59955300  1
  O  O41  1  0.97263400  0.81497300  0.59955300  1
  O  O42  1  0.51836033  0.69403267  0.76621967  1
  O  O43  1  0.30596733  0.82432767  0.76621967  1
  O  O44  1  0.17567233  0.48163967  0.76621967  1
  O  O45  1  0.82432767  0.30596733  0.73378033  1
  O  O46  1  0.69403267  0.51836033  0.73378033  1
  O  O47  1  0.48163967  0.17567233  0.73378033  1
  O  O48  1  0.81497300  0.97263400  0.90044700  1
  O  O49  1  0.02736600  0.84233900  0.90044700  1
  O  O50  1  0.15766100  0.18502700  0.90044700  1
  O  O51  1  0.50900567  0.36069933  0.93288633  1
  O  O52  1  0.85169367  0.49099433  0.93288633  1
  O  O53  1  0.63930067  0.14830633  0.93288633  1
  O  O54  1  0.18502700  0.02736600  0.09955300  1
  O  O55  1  0.97263400  0.15766100  0.09955300  1
  O  O56  1  0.84233900  0.81497300  0.09955300  1
  O  O57  1  0.49099433  0.63930067  0.06711367  1
  O  O58  1  0.36069933  0.85169367  0.06711367  1
  O  O59  1  0.14830633  0.50900567  0.06711367  1
  O  O60  1  0.48163967  0.30596733  0.23378033  1
  O  O61  1  0.69403267  0.17567233  0.23378033  1
  O  O62  1  0.82432767  0.51836033  0.23378033  1
  O  O63  1  0.17567233  0.69403267  0.26621967  1
  O  O64  1  0.51836033  0.82432767  0.26621967  1
  O  O65  1  0.30596733  0.48163967  0.26621967  1
