# generated using pymatgen
data_V4SiSb2
_symmetry_space_group_name_H-M   'P 1'
_cell_length_a   9.86704800
_cell_length_b   9.86704800
_cell_length_c   4.69277200
_cell_angle_alpha   90.00000000
_cell_angle_beta   90.00000000
_cell_angle_gamma   90.00000000
_symmetry_Int_Tables_number   1
_chemical_formula_structural   V4SiSb2
_chemical_formula_sum   'V16 Si4 Sb8'
_cell_volume   456.88188208
_cell_formula_units_Z   4
loop_
 _symmetry_equiv_pos_site_id
 _symmetry_equiv_pos_as_xyz
  1  'x, y, z'
loop_
 _atom_site_type_symbol
 _atom_site_label
 _atom_site_symmetry_multiplicity
 _atom_site_fract_x
 _atom_site_fract_y
 _atom_site_fract_z
 _atom_site_occupancy
  V  V0  1  0.41522100  0.29453800  0.00000000  1
  V  V1  1  0.79453800  0.08477900  0.50000000  1
  V  V2  1  0.41522100  0.70546200  0.50000000  1
  V  V3  1  0.58477900  0.29453800  0.50000000  1
  V  V4  1  0.20546200  0.08477900  0.00000000  1
  V  V5  1  0.79453800  0.91522100  0.00000000  1
  V  V6  1  0.20546200  0.91522100  0.50000000  1
  V  V7  1  0.58477900  0.70546200  0.00000000  1
  V  V8  1  0.91522100  0.79453800  0.50000000  1
  V  V9  1  0.29453800  0.58477900  0.00000000  1
  V  V10  1  0.91522100  0.20546200  0.00000000  1
  V  V11  1  0.08477900  0.79453800  0.00000000  1
  V  V12  1  0.70546200  0.58477900  0.50000000  1
  V  V13  1  0.29453800  0.41522100  0.50000000  1
  V  V14  1  0.70546200  0.41522100  0.00000000  1
  V  V15  1  0.08477900  0.20546200  0.50000000  1
  Si  Si16  1  0.00000000  0.00000000  0.75000000  1
  Si  Si17  1  0.00000000  0.00000000  0.25000000  1
  Si  Si18  1  0.50000000  0.50000000  0.25000000  1
  Si  Si19  1  0.50000000  0.50000000  0.75000000  1
  Sb  Sb20  1  0.64107500  0.85892500  0.50000000  1
  Sb  Sb21  1  0.64107500  0.14107500  0.00000000  1
  Sb  Sb22  1  0.35892500  0.85892500  0.00000000  1
  Sb  Sb23  1  0.35892500  0.14107500  0.50000000  1
  Sb  Sb24  1  0.14107500  0.35892500  0.00000000  1
  Sb  Sb25  1  0.14107500  0.64107500  0.50000000  1
  Sb  Sb26  1  0.85892500  0.35892500  0.50000000  1
  Sb  Sb27  1  0.85892500  0.64107500  0.00000000  1
