# generated using pymatgen
data_NpSnAu2
_symmetry_space_group_name_H-M   'P 1'
_cell_length_a   7.11580600
_cell_length_b   7.11580600
_cell_length_c   7.11580600
_cell_angle_alpha   90.00000000
_cell_angle_beta   90.00000000
_cell_angle_gamma   90.00000000
_symmetry_Int_Tables_number   1
_chemical_formula_structural   NpSnAu2
_chemical_formula_sum   'Np4 Sn4 Au8'
_cell_volume   360.30666670
_cell_formula_units_Z   4
loop_
 _symmetry_equiv_pos_site_id
 _symmetry_equiv_pos_as_xyz
  1  'x, y, z'
loop_
 _atom_site_type_symbol
 _atom_site_label
 _atom_site_symmetry_multiplicity
 _atom_site_fract_x
 _atom_site_fract_y
 _atom_site_fract_z
 _atom_site_occupancy
  Np  Np0  1  0.00000000  0.00000000  0.00000000  1
  Np  Np1  1  0.00000000  0.50000000  0.50000000  1
  Np  Np2  1  0.50000000  0.00000000  0.50000000  1
  Np  Np3  1  0.50000000  0.50000000  0.00000000  1
  Sn  Sn4  1  0.50000000  0.00000000  0.00000000  1
  Sn  Sn5  1  0.50000000  0.50000000  0.50000000  1
  Sn  Sn6  1  0.00000000  0.00000000  0.50000000  1
  Sn  Sn7  1  0.00000000  0.50000000  0.00000000  1
  Au  Au8  1  0.25000000  0.75000000  0.75000000  1
  Au  Au9  1  0.25000000  0.25000000  0.75000000  1
  Au  Au10  1  0.25000000  0.25000000  0.25000000  1
  Au  Au11  1  0.25000000  0.75000000  0.25000000  1
  Au  Au12  1  0.75000000  0.75000000  0.25000000  1
  Au  Au13  1  0.75000000  0.25000000  0.25000000  1
  Au  Au14  1  0.75000000  0.25000000  0.75000000  1
  Au  Au15  1  0.75000000  0.75000000  0.75000000  1
