# generated using pymatgen
data_Rb3Mg
_symmetry_space_group_name_H-M   'P 1'
_cell_length_a   5.03518400
_cell_length_b   7.42247000
_cell_length_c   14.56506200
_cell_angle_alpha   90.00000000
_cell_angle_beta   90.00000000
_cell_angle_gamma   90.00000000
_symmetry_Int_Tables_number   1
_chemical_formula_structural   Rb3Mg
_chemical_formula_sum   'Rb6 Mg2'
_cell_volume   544.34737647
_cell_formula_units_Z   2
loop_
 _symmetry_equiv_pos_site_id
 _symmetry_equiv_pos_as_xyz
  1  'x, y, z'
loop_
 _atom_site_type_symbol
 _atom_site_label
 _atom_site_symmetry_multiplicity
 _atom_site_fract_x
 _atom_site_fract_y
 _atom_site_fract_z
 _atom_site_occupancy
  Rb  Rb0  1  0.00000000  0.94914900  0.29136700  1
  Rb  Rb1  1  0.50000000  0.90961700  0.00000000  1
  Rb  Rb2  1  0.50000000  0.44914900  0.20863300  1
  Rb  Rb3  1  0.50000000  0.44914900  0.79136700  1
  Rb  Rb4  1  0.00000000  0.40961700  0.50000000  1
  Rb  Rb5  1  0.00000000  0.94914900  0.70863300  1
  Mg  Mg6  1  0.00000000  0.35875600  0.00000000  1
  Mg  Mg7  1  0.50000000  0.85875600  0.50000000  1
