# generated using pymatgen
data_Rb2CuCl4
_symmetry_space_group_name_H-M   'P 1'
_cell_length_a   4.94745600
_cell_length_b   4.94745600
_cell_length_c   16.10044000
_cell_angle_alpha   90.00000000
_cell_angle_beta   90.00000000
_cell_angle_gamma   90.00000000
_symmetry_Int_Tables_number   1
_chemical_formula_structural   Rb2CuCl4
_chemical_formula_sum   'Rb4 Cu2 Cl8'
_cell_volume   394.09563606
_cell_formula_units_Z   2
loop_
 _symmetry_equiv_pos_site_id
 _symmetry_equiv_pos_as_xyz
  1  'x, y, z'
loop_
 _atom_site_type_symbol
 _atom_site_label
 _atom_site_symmetry_multiplicity
 _atom_site_fract_x
 _atom_site_fract_y
 _atom_site_fract_z
 _atom_site_occupancy
  Rb  Rb0  1  0.50000000  0.50000000  0.14198500  1
  Rb  Rb1  1  0.00000000  0.00000000  0.35801500  1
  Rb  Rb2  1  0.00000000  0.00000000  0.64198500  1
  Rb  Rb3  1  0.50000000  0.50000000  0.85801500  1
  Cu  Cu4  1  0.00000000  0.00000000  0.00000000  1
  Cu  Cu5  1  0.50000000  0.50000000  0.50000000  1
  Cl  Cl6  1  0.50000000  0.50000000  0.34925500  1
  Cl  Cl7  1  0.00000000  0.00000000  0.15074500  1
  Cl  Cl8  1  0.00000000  0.50000000  0.00000000  1
  Cl  Cl9  1  0.50000000  0.00000000  0.00000000  1
  Cl  Cl10  1  0.00000000  0.00000000  0.84925500  1
  Cl  Cl11  1  0.50000000  0.50000000  0.65074500  1
  Cl  Cl12  1  0.50000000  0.00000000  0.50000000  1
  Cl  Cl13  1  0.00000000  0.50000000  0.50000000  1
