# generated using pymatgen
data_RbTlBr3
_symmetry_space_group_name_H-M   'P 1'
_cell_length_a   8.25289200
_cell_length_b   8.25396400
_cell_length_c   5.83303404
_cell_angle_alpha   90.00000000
_cell_angle_beta   90.04797377
_cell_angle_gamma   90.00000000
_symmetry_Int_Tables_number   1
_chemical_formula_structural   RbTlBr3
_chemical_formula_sum   'Rb2 Tl2 Br6'
_cell_volume   397.34073533
_cell_formula_units_Z   2
loop_
 _symmetry_equiv_pos_site_id
 _symmetry_equiv_pos_as_xyz
  1  'x, y, z'
loop_
 _atom_site_type_symbol
 _atom_site_label
 _atom_site_symmetry_multiplicity
 _atom_site_fract_x
 _atom_site_fract_y
 _atom_site_fract_z
 _atom_site_occupancy
  Rb  Rb0  1  0.00263500  0.00000000  0.00111400  1
  Rb  Rb1  1  0.50263500  0.50000000  0.00111400  1
  Tl  Tl2  1  0.50473700  0.00000000  0.51722800  1
  Tl  Tl3  1  0.00473700  0.50000000  0.51722800  1
  Br  Br4  1  0.25245800  0.74823200  0.51467600  1
  Br  Br5  1  0.49130600  0.00000000  0.01596700  1
  Br  Br6  1  0.25245800  0.25176800  0.51467600  1
  Br  Br7  1  0.75245800  0.24823200  0.51467600  1
  Br  Br8  1  0.99130600  0.50000000  0.01596700  1
  Br  Br9  1  0.75245800  0.75176800  0.51467600  1
