# generated using pymatgen
data_PdAuO2
_symmetry_space_group_name_H-M   'P 1'
_cell_length_a   12.60467200
_cell_length_b   3.09384800
_cell_length_c   6.30874180
_cell_angle_alpha   90.00000000
_cell_angle_beta   108.39340290
_cell_angle_gamma   90.00000000
_symmetry_Int_Tables_number   1
_chemical_formula_structural   PdAuO2
_chemical_formula_sum   'Pd4 Au4 O8'
_cell_volume   233.45295404
_cell_formula_units_Z   4
loop_
 _symmetry_equiv_pos_site_id
 _symmetry_equiv_pos_as_xyz
  1  'x, y, z'
loop_
 _atom_site_type_symbol
 _atom_site_label
 _atom_site_symmetry_multiplicity
 _atom_site_fract_x
 _atom_site_fract_y
 _atom_site_fract_z
 _atom_site_occupancy
  Pd  Pd0  1  0.00000000  0.00000000  0.50000000  1
  Pd  Pd1  1  0.00000000  0.50000000  0.00000000  1
  Pd  Pd2  1  0.50000000  0.50000000  0.50000000  1
  Pd  Pd3  1  0.50000000  0.00000000  0.00000000  1
  Au  Au4  1  0.26515700  0.00000000  0.21065000  1
  Au  Au5  1  0.23484300  0.50000000  0.78935000  1
  Au  Au6  1  0.76515700  0.50000000  0.21065000  1
  Au  Au7  1  0.73484300  0.00000000  0.78935000  1
  O  O8  1  0.06136900  0.50000000  0.72220600  1
  O  O9  1  0.40160600  0.50000000  0.83212100  1
  O  O10  1  0.09839400  0.00000000  0.16787900  1
  O  O11  1  0.43863100  0.00000000  0.27779400  1
  O  O12  1  0.56136900  0.00000000  0.72220600  1
  O  O13  1  0.90160600  0.00000000  0.83212100  1
  O  O14  1  0.59839400  0.50000000  0.16787900  1
  O  O15  1  0.93863100  0.50000000  0.27779400  1
