# generated using pymatgen
data_Ho3ReB7
_symmetry_space_group_name_H-M   'P 1'
_cell_length_a   3.52288800
_cell_length_b   15.71339200
_cell_length_c   9.32976900
_cell_angle_alpha   90.00000000
_cell_angle_beta   90.00000000
_cell_angle_gamma   90.00000000
_symmetry_Int_Tables_number   1
_chemical_formula_structural   Ho3ReB7
_chemical_formula_sum   'Ho12 Re4 B28'
_cell_volume   516.46354533
_cell_formula_units_Z   4
loop_
 _symmetry_equiv_pos_site_id
 _symmetry_equiv_pos_as_xyz
  1  'x, y, z'
loop_
 _atom_site_type_symbol
 _atom_site_label
 _atom_site_symmetry_multiplicity
 _atom_site_fract_x
 _atom_site_fract_y
 _atom_site_fract_z
 _atom_site_occupancy
  Ho  Ho0  1  0.00000000  0.10549800  0.56001900  1
  Ho  Ho1  1  0.50000000  0.39450200  0.06001900  1
  Ho  Ho2  1  0.50000000  0.39450200  0.43998100  1
  Ho  Ho3  1  0.00000000  0.10549800  0.93998100  1
  Ho  Ho4  1  0.50000000  0.25726500  0.75000000  1
  Ho  Ho5  1  0.00000000  0.24273500  0.25000000  1
  Ho  Ho6  1  0.50000000  0.60549800  0.56001900  1
  Ho  Ho7  1  0.00000000  0.89450200  0.06001900  1
  Ho  Ho8  1  0.00000000  0.89450200  0.43998100  1
  Ho  Ho9  1  0.50000000  0.60549800  0.93998100  1
  Ho  Ho10  1  0.00000000  0.75726500  0.75000000  1
  Ho  Ho11  1  0.50000000  0.74273500  0.25000000  1
  Re  Re12  1  0.50000000  0.44743700  0.75000000  1
  Re  Re13  1  0.00000000  0.05256300  0.25000000  1
  Re  Re14  1  0.00000000  0.94743700  0.75000000  1
  Re  Re15  1  0.50000000  0.55256300  0.25000000  1
  B  B16  1  0.50000000  0.04351500  0.75000000  1
  B  B17  1  0.00000000  0.45648500  0.25000000  1
  B  B18  1  0.00000000  0.27279500  0.53346300  1
  B  B19  1  0.50000000  0.22720500  0.03346300  1
  B  B20  1  0.50000000  0.22720500  0.46653700  1
  B  B21  1  0.00000000  0.27279500  0.96653700  1
  B  B22  1  0.00000000  0.36780600  0.84953200  1
  B  B23  1  0.50000000  0.13219400  0.34953200  1
  B  B24  1  0.50000000  0.13219400  0.15046800  1
  B  B25  1  0.00000000  0.36780600  0.65046800  1
  B  B26  1  0.00000000  0.47945400  0.90489400  1
  B  B27  1  0.50000000  0.02054600  0.40489400  1
  B  B28  1  0.50000000  0.02054600  0.09510600  1
  B  B29  1  0.00000000  0.47945400  0.59510600  1
  B  B30  1  0.00000000  0.54351500  0.75000000  1
  B  B31  1  0.50000000  0.95648500  0.25000000  1
  B  B32  1  0.50000000  0.77279500  0.53346300  1
  B  B33  1  0.00000000  0.72720500  0.03346300  1
  B  B34  1  0.00000000  0.72720500  0.46653700  1
  B  B35  1  0.50000000  0.77279500  0.96653700  1
  B  B36  1  0.50000000  0.86780600  0.84953200  1
  B  B37  1  0.00000000  0.63219400  0.34953200  1
  B  B38  1  0.00000000  0.63219400  0.15046800  1
  B  B39  1  0.50000000  0.86780600  0.65046800  1
  B  B40  1  0.50000000  0.97945400  0.90489400  1
  B  B41  1  0.00000000  0.52054600  0.40489400  1
  B  B42  1  0.00000000  0.52054600  0.09510600  1
  B  B43  1  0.50000000  0.97945400  0.59510600  1
