# generated using pymatgen
data_PrPd
_symmetry_space_group_name_H-M   'P 1'
_cell_length_a   3.90748600
_cell_length_b   11.00983600
_cell_length_c   4.69501100
_cell_angle_alpha   90.00000000
_cell_angle_beta   90.00000000
_cell_angle_gamma   90.00000000
_symmetry_Int_Tables_number   1
_chemical_formula_structural   PrPd
_chemical_formula_sum   'Pr4 Pd4'
_cell_volume   201.98303548
_cell_formula_units_Z   4
loop_
 _symmetry_equiv_pos_site_id
 _symmetry_equiv_pos_as_xyz
  1  'x, y, z'
loop_
 _atom_site_type_symbol
 _atom_site_label
 _atom_site_symmetry_multiplicity
 _atom_site_fract_x
 _atom_site_fract_y
 _atom_site_fract_z
 _atom_site_occupancy
  Pr  Pr0  1  0.50000000  0.63650300  0.75000000  1
  Pr  Pr1  1  0.00000000  0.86349700  0.25000000  1
  Pr  Pr2  1  0.00000000  0.13650300  0.75000000  1
  Pr  Pr3  1  0.50000000  0.36349700  0.25000000  1
  Pd  Pd4  1  0.50000000  0.91383400  0.75000000  1
  Pd  Pd5  1  0.00000000  0.58616600  0.25000000  1
  Pd  Pd6  1  0.00000000  0.41383400  0.75000000  1
  Pd  Pd7  1  0.50000000  0.08616600  0.25000000  1
