# generated using pymatgen
data_SrPd
_symmetry_space_group_name_H-M   'P 1'
_cell_length_a   4.26996800
_cell_length_b   11.44429200
_cell_length_c   4.55103400
_cell_angle_alpha   90.00000000
_cell_angle_beta   90.00000000
_cell_angle_gamma   90.00000000
_symmetry_Int_Tables_number   1
_chemical_formula_structural   SrPd
_chemical_formula_sum   'Sr4 Pd4'
_cell_volume   222.39428906
_cell_formula_units_Z   4
loop_
 _symmetry_equiv_pos_site_id
 _symmetry_equiv_pos_as_xyz
  1  'x, y, z'
loop_
 _atom_site_type_symbol
 _atom_site_label
 _atom_site_symmetry_multiplicity
 _atom_site_fract_x
 _atom_site_fract_y
 _atom_site_fract_z
 _atom_site_occupancy
  Sr  Sr0  1  0.50000000  0.63892400  0.75000000  1
  Sr  Sr1  1  0.00000000  0.86107600  0.25000000  1
  Sr  Sr2  1  0.00000000  0.13892400  0.75000000  1
  Sr  Sr3  1  0.50000000  0.36107600  0.25000000  1
  Pd  Pd4  1  0.50000000  0.92770000  0.75000000  1
  Pd  Pd5  1  0.00000000  0.57230000  0.25000000  1
  Pd  Pd6  1  0.00000000  0.42770000  0.75000000  1
  Pd  Pd7  1  0.50000000  0.07230000  0.25000000  1
