# generated using pymatgen
data_MgPt5
_symmetry_space_group_name_H-M   'P 1'
_cell_length_a   10.45875200
_cell_length_b   2.79340800
_cell_length_c   6.72740277
_cell_angle_alpha   90.00000000
_cell_angle_beta   106.35906170
_cell_angle_gamma   90.00000000
_symmetry_Int_Tables_number   1
_chemical_formula_structural   MgPt5
_chemical_formula_sum   'Mg2 Pt10'
_cell_volume   188.58782266
_cell_formula_units_Z   2
loop_
 _symmetry_equiv_pos_site_id
 _symmetry_equiv_pos_as_xyz
  1  'x, y, z'
loop_
 _atom_site_type_symbol
 _atom_site_label
 _atom_site_symmetry_multiplicity
 _atom_site_fract_x
 _atom_site_fract_y
 _atom_site_fract_z
 _atom_site_occupancy
  Mg  Mg0  1  0.61117000  0.00000000  0.72168200  1
  Mg  Mg1  1  0.11117000  0.50000000  0.72168200  1
  Pt  Pt2  1  0.50120400  0.50000000  0.00002400  1
  Pt  Pt3  1  0.77326400  0.50000000  0.04442100  1
  Pt  Pt4  1  0.66603300  0.00000000  0.33226800  1
  Pt  Pt5  1  0.94746800  0.00000000  0.39759400  1
  Pt  Pt6  1  0.83419400  0.50000000  0.67067800  1
  Pt  Pt7  1  0.00120400  0.00000000  0.00002400  1
  Pt  Pt8  1  0.27326400  0.00000000  0.04442100  1
  Pt  Pt9  1  0.16603300  0.50000000  0.33226800  1
  Pt  Pt10  1  0.44746800  0.50000000  0.39759400  1
  Pt  Pt11  1  0.33419400  0.00000000  0.67067800  1
