# generated using pymatgen
data_SmAu
_symmetry_space_group_name_H-M   'P 1'
_cell_length_a   3.88540000
_cell_length_b   11.18813600
_cell_length_c   4.72621700
_cell_angle_alpha   90.00000000
_cell_angle_beta   90.00000000
_cell_angle_gamma   90.00000000
_symmetry_Int_Tables_number   1
_chemical_formula_structural   SmAu
_chemical_formula_sum   'Sm4 Au4'
_cell_volume   205.45046603
_cell_formula_units_Z   4
loop_
 _symmetry_equiv_pos_site_id
 _symmetry_equiv_pos_as_xyz
  1  'x, y, z'
loop_
 _atom_site_type_symbol
 _atom_site_label
 _atom_site_symmetry_multiplicity
 _atom_site_fract_x
 _atom_site_fract_y
 _atom_site_fract_z
 _atom_site_occupancy
  Sm  Sm0  1  0.50000000  0.63777700  0.75000000  1
  Sm  Sm1  1  0.00000000  0.86222300  0.25000000  1
  Sm  Sm2  1  0.00000000  0.13777700  0.75000000  1
  Sm  Sm3  1  0.50000000  0.36222300  0.25000000  1
  Au  Au4  1  0.50000000  0.91211100  0.75000000  1
  Au  Au5  1  0.00000000  0.58788900  0.25000000  1
  Au  Au6  1  0.00000000  0.41211100  0.75000000  1
  Au  Au7  1  0.50000000  0.08788900  0.25000000  1
