# generated using pymatgen
data_CuHO2
_symmetry_space_group_name_H-M   'P 1'
_cell_length_a   2.96896800
_cell_length_b   11.93014600
_cell_length_c   4.03071100
_cell_angle_alpha   90.00000000
_cell_angle_beta   90.00000000
_cell_angle_gamma   90.00000000
_symmetry_Int_Tables_number   1
_chemical_formula_structural   CuHO2
_chemical_formula_sum   'Cu4 H4 O8'
_cell_volume   142.76867727
_cell_formula_units_Z   4
loop_
 _symmetry_equiv_pos_site_id
 _symmetry_equiv_pos_as_xyz
  1  'x, y, z'
loop_
 _atom_site_type_symbol
 _atom_site_label
 _atom_site_symmetry_multiplicity
 _atom_site_fract_x
 _atom_site_fract_y
 _atom_site_fract_z
 _atom_site_occupancy
  Cu  Cu0  1  0.50000000  0.67822600  0.45754300  1
  Cu  Cu1  1  0.00000000  0.82177400  0.95754300  1
  Cu  Cu2  1  0.00000000  0.17822600  0.45754300  1
  Cu  Cu3  1  0.50000000  0.32177400  0.95754300  1
  H  H4  1  0.00000000  0.51832200  0.26345300  1
  H  H5  1  0.50000000  0.98167800  0.76345300  1
  H  H6  1  0.50000000  0.01832200  0.26345300  1
  H  H7  1  0.00000000  0.48167800  0.76345300  1
  O  O8  1  0.50000000  0.93088500  0.96836700  1
  O  O9  1  0.00000000  0.56911500  0.46836700  1
  O  O10  1  0.00000000  0.79020500  0.45984700  1
  O  O11  1  0.50000000  0.70979500  0.95984700  1
  O  O12  1  0.00000000  0.43088500  0.96836700  1
  O  O13  1  0.50000000  0.06911500  0.46836700  1
  O  O14  1  0.50000000  0.29020500  0.45984700  1
  O  O15  1  0.00000000  0.20979500  0.95984700  1
