# generated using pymatgen
data_Ba3Ge4
_symmetry_space_group_name_H-M   'P 1'
_cell_length_a   11.93108800
_cell_length_b   12.34186200
_cell_length_c   12.27184300
_cell_angle_alpha   90.00000000
_cell_angle_beta   90.00000000
_cell_angle_gamma   90.00000000
_symmetry_Int_Tables_number   1
_chemical_formula_structural   Ba3Ge4
_chemical_formula_sum   'Ba24 Ge32'
_cell_volume   1807.05148165
_cell_formula_units_Z   8
loop_
 _symmetry_equiv_pos_site_id
 _symmetry_equiv_pos_as_xyz
  1  'x, y, z'
loop_
 _atom_site_type_symbol
 _atom_site_label
 _atom_site_symmetry_multiplicity
 _atom_site_fract_x
 _atom_site_fract_y
 _atom_site_fract_z
 _atom_site_occupancy
  Ba  Ba0  1  0.25000000  0.25000000  0.74451600  1
  Ba  Ba1  1  0.25000000  0.75000000  0.25548400  1
  Ba  Ba2  1  0.25000000  0.25000000  0.25548400  1
  Ba  Ba3  1  0.25000000  0.75000000  0.74451600  1
  Ba  Ba4  1  0.50000000  0.00000000  0.32539700  1
  Ba  Ba5  1  0.50000000  0.00000000  0.67460300  1
  Ba  Ba6  1  0.00000000  0.00000000  0.16142300  1
  Ba  Ba7  1  0.00000000  0.00000000  0.83857700  1
  Ba  Ba8  1  0.33681100  0.00000000  0.00000000  1
  Ba  Ba9  1  0.66318900  0.00000000  0.00000000  1
  Ba  Ba10  1  0.50000000  0.65916000  0.50000000  1
  Ba  Ba11  1  0.50000000  0.34084000  0.50000000  1
  Ba  Ba12  1  0.75000000  0.75000000  0.74451600  1
  Ba  Ba13  1  0.75000000  0.25000000  0.25548400  1
  Ba  Ba14  1  0.75000000  0.75000000  0.25548400  1
  Ba  Ba15  1  0.75000000  0.25000000  0.74451600  1
  Ba  Ba16  1  0.00000000  0.50000000  0.32539700  1
  Ba  Ba17  1  0.00000000  0.50000000  0.67460300  1
  Ba  Ba18  1  0.50000000  0.50000000  0.16142300  1
  Ba  Ba19  1  0.50000000  0.50000000  0.83857700  1
  Ba  Ba20  1  0.83681100  0.50000000  0.00000000  1
  Ba  Ba21  1  0.16318900  0.50000000  0.00000000  1
  Ba  Ba22  1  0.00000000  0.15916000  0.50000000  1
  Ba  Ba23  1  0.00000000  0.84084000  0.50000000  1
  Ge  Ge24  1  0.80327300  0.00000000  0.34981300  1
  Ge  Ge25  1  0.19672700  0.00000000  0.34981300  1
  Ge  Ge26  1  0.80327300  0.00000000  0.65018700  1
  Ge  Ge27  1  0.19672700  0.00000000  0.65018700  1
  Ge  Ge28  1  0.50000000  0.20485500  0.13817300  1
  Ge  Ge29  1  0.50000000  0.79514500  0.13817300  1
  Ge  Ge30  1  0.50000000  0.79514500  0.86182700  1
  Ge  Ge31  1  0.50000000  0.20485500  0.86182700  1
  Ge  Ge32  1  0.36180600  0.29797400  0.00000000  1
  Ge  Ge33  1  0.63819400  0.70202600  0.00000000  1
  Ge  Ge34  1  0.36180600  0.70202600  0.00000000  1
  Ge  Ge35  1  0.63819400  0.29797400  0.00000000  1
  Ge  Ge36  1  0.69462600  0.10590000  0.50000000  1
  Ge  Ge37  1  0.30537400  0.89410000  0.50000000  1
  Ge  Ge38  1  0.69462600  0.89410000  0.50000000  1
  Ge  Ge39  1  0.30537400  0.10590000  0.50000000  1
  Ge  Ge40  1  0.30327300  0.50000000  0.34981300  1
  Ge  Ge41  1  0.69672700  0.50000000  0.34981300  1
  Ge  Ge42  1  0.30327300  0.50000000  0.65018700  1
  Ge  Ge43  1  0.69672700  0.50000000  0.65018700  1
  Ge  Ge44  1  0.00000000  0.70485500  0.13817300  1
  Ge  Ge45  1  0.00000000  0.29514500  0.13817300  1
  Ge  Ge46  1  0.00000000  0.29514500  0.86182700  1
  Ge  Ge47  1  0.00000000  0.70485500  0.86182700  1
  Ge  Ge48  1  0.86180600  0.79797400  0.00000000  1
  Ge  Ge49  1  0.13819400  0.20202600  0.00000000  1
  Ge  Ge50  1  0.86180600  0.20202600  0.00000000  1
  Ge  Ge51  1  0.13819400  0.79797400  0.00000000  1
  Ge  Ge52  1  0.19462600  0.60590000  0.50000000  1
  Ge  Ge53  1  0.80537400  0.39410000  0.50000000  1
  Ge  Ge54  1  0.19462600  0.39410000  0.50000000  1
  Ge  Ge55  1  0.80537400  0.60590000  0.50000000  1
