# generated using pymatgen
data_CuO2F
_symmetry_space_group_name_H-M   'P 1'
_cell_length_a   3.10750400
_cell_length_b   4.94534600
_cell_length_c   11.64386000
_cell_angle_alpha   90.00000000
_cell_angle_beta   90.00000000
_cell_angle_gamma   90.00000000
_symmetry_Int_Tables_number   1
_chemical_formula_structural   CuO2F
_chemical_formula_sum   'Cu4 O8 F4'
_cell_volume   178.93914328
_cell_formula_units_Z   4
loop_
 _symmetry_equiv_pos_site_id
 _symmetry_equiv_pos_as_xyz
  1  'x, y, z'
loop_
 _atom_site_type_symbol
 _atom_site_label
 _atom_site_symmetry_multiplicity
 _atom_site_fract_x
 _atom_site_fract_y
 _atom_site_fract_z
 _atom_site_occupancy
  Cu  Cu0  1  0.50000000  0.90669800  0.14848950  1
  Cu  Cu1  1  0.00000000  0.40669800  0.35151050  1
  Cu  Cu2  1  0.00000000  0.40669800  0.64848950  1
  Cu  Cu3  1  0.50000000  0.90669800  0.85151050  1
  O  O4  1  0.00000000  0.73497550  0.44487600  1
  O  O5  1  0.50000000  0.23497550  0.05512400  1
  O  O6  1  0.00000000  0.73811400  0.05744050  1
  O  O7  1  0.50000000  0.23811400  0.44255950  1
  O  O8  1  0.50000000  0.23497550  0.94487600  1
  O  O9  1  0.00000000  0.73497550  0.55512400  1
  O  O10  1  0.50000000  0.23811400  0.55744050  1
  O  O11  1  0.00000000  0.73811400  0.94255950  1
  F  F12  1  0.50000000  0.57527300  0.25388550  1
  F  F13  1  0.00000000  0.07527300  0.24611450  1
  F  F14  1  0.00000000  0.07527300  0.75388550  1
  F  F15  1  0.50000000  0.57527300  0.74611450  1
