# generated using pymatgen
data_PbAuO2
_symmetry_space_group_name_H-M   'P 1'
_cell_length_a   12.66852000
_cell_length_b   3.65255000
_cell_length_c   6.58967837
_cell_angle_alpha   90.00000000
_cell_angle_beta   99.14553850
_cell_angle_gamma   90.00000000
_symmetry_Int_Tables_number   1
_chemical_formula_structural   PbAuO2
_chemical_formula_sum   'Pb4 Au4 O8'
_cell_volume   301.04404135
_cell_formula_units_Z   4
loop_
 _symmetry_equiv_pos_site_id
 _symmetry_equiv_pos_as_xyz
  1  'x, y, z'
loop_
 _atom_site_type_symbol
 _atom_site_label
 _atom_site_symmetry_multiplicity
 _atom_site_fract_x
 _atom_site_fract_y
 _atom_site_fract_z
 _atom_site_occupancy
  Pb  Pb0  1  0.00000000  0.50000000  0.00000000  1
  Pb  Pb1  1  0.00000000  0.00000000  0.50000000  1
  Pb  Pb2  1  0.50000000  0.00000000  0.00000000  1
  Pb  Pb3  1  0.50000000  0.50000000  0.50000000  1
  Au  Au4  1  0.75073200  0.50000000  0.21355700  1
  Au  Au5  1  0.74926800  0.00000000  0.78644300  1
  Au  Au6  1  0.25073200  0.00000000  0.21355700  1
  Au  Au7  1  0.24926800  0.50000000  0.78644300  1
  O  O8  1  0.58676200  0.00000000  0.73148500  1
  O  O9  1  0.91214800  0.00000000  0.82605300  1
  O  O10  1  0.91323800  0.50000000  0.26851500  1
  O  O11  1  0.58785200  0.50000000  0.17394700  1
  O  O12  1  0.08676200  0.50000000  0.73148500  1
  O  O13  1  0.41214800  0.50000000  0.82605300  1
  O  O14  1  0.41323800  0.00000000  0.26851500  1
  O  O15  1  0.08785200  0.00000000  0.17394700  1
