# generated using pymatgen
data_Ba2UCuO6
_symmetry_space_group_name_H-M   'P 1'
_cell_length_a   5.80770200
_cell_length_b   5.80770200
_cell_length_c   9.13232400
_cell_angle_alpha   90.00000000
_cell_angle_beta   90.00000000
_cell_angle_gamma   90.00000000
_symmetry_Int_Tables_number   1
_chemical_formula_structural   Ba2UCuO6
_chemical_formula_sum   'Ba4 U2 Cu2 O12'
_cell_volume   308.02783215
_cell_formula_units_Z   2
loop_
 _symmetry_equiv_pos_site_id
 _symmetry_equiv_pos_as_xyz
  1  'x, y, z'
loop_
 _atom_site_type_symbol
 _atom_site_label
 _atom_site_symmetry_multiplicity
 _atom_site_fract_x
 _atom_site_fract_y
 _atom_site_fract_z
 _atom_site_occupancy
  Ba  Ba0  1  0.50000000  0.00000000  0.25000000  1
  Ba  Ba1  1  0.00000000  0.50000000  0.25000000  1
  Ba  Ba2  1  0.00000000  0.50000000  0.75000000  1
  Ba  Ba3  1  0.50000000  0.00000000  0.75000000  1
  U  U4  1  0.00000000  0.00000000  0.00000000  1
  U  U5  1  0.50000000  0.50000000  0.50000000  1
  Cu  Cu6  1  0.50000000  0.50000000  0.00000000  1
  Cu  Cu7  1  0.00000000  0.00000000  0.50000000  1
  O  O8  1  0.24298050  0.24298050  0.50000000  1
  O  O9  1  0.25701950  0.74298050  0.00000000  1
  O  O10  1  0.74298050  0.25701950  0.00000000  1
  O  O11  1  0.25701950  0.25701950  0.00000000  1
  O  O12  1  0.00000000  0.00000000  0.22379600  1
  O  O13  1  0.50000000  0.50000000  0.27620400  1
  O  O14  1  0.74298050  0.74298050  0.00000000  1
  O  O15  1  0.75701950  0.24298050  0.50000000  1
  O  O16  1  0.24298050  0.75701950  0.50000000  1
  O  O17  1  0.75701950  0.75701950  0.50000000  1
  O  O18  1  0.50000000  0.50000000  0.72379600  1
  O  O19  1  0.00000000  0.00000000  0.77620400  1
