# generated using pymatgen
data_BaAs2Pd
_symmetry_space_group_name_H-M   'P 1'
_cell_length_a   4.75714000
_cell_length_b   17.51474400
_cell_length_c   4.64309700
_cell_angle_alpha   90.00000000
_cell_angle_beta   90.00000000
_cell_angle_gamma   90.00000000
_symmetry_Int_Tables_number   1
_chemical_formula_structural   BaAs2Pd
_chemical_formula_sum   'Ba4 As8 Pd4'
_cell_volume   386.86325654
_cell_formula_units_Z   4
loop_
 _symmetry_equiv_pos_site_id
 _symmetry_equiv_pos_as_xyz
  1  'x, y, z'
loop_
 _atom_site_type_symbol
 _atom_site_label
 _atom_site_symmetry_multiplicity
 _atom_site_fract_x
 _atom_site_fract_y
 _atom_site_fract_z
 _atom_site_occupancy
  Ba  Ba0  1  0.50000000  0.10559200  0.75000000  1
  Ba  Ba1  1  0.00000000  0.39440800  0.25000000  1
  Ba  Ba2  1  0.00000000  0.60559200  0.75000000  1
  Ba  Ba3  1  0.50000000  0.89440800  0.25000000  1
  As  As4  1  0.50000000  0.46246100  0.75000000  1
  As  As5  1  0.00000000  0.03753900  0.25000000  1
  As  As6  1  0.50000000  0.24973700  0.25000000  1
  As  As7  1  0.00000000  0.25026300  0.75000000  1
  As  As8  1  0.00000000  0.96246100  0.75000000  1
  As  As9  1  0.50000000  0.53753900  0.25000000  1
  As  As10  1  0.00000000  0.74973700  0.25000000  1
  As  As11  1  0.50000000  0.75026300  0.75000000  1
  Pd  Pd12  1  0.00000000  0.18610000  0.25000000  1
  Pd  Pd13  1  0.50000000  0.31390000  0.75000000  1
  Pd  Pd14  1  0.50000000  0.68610000  0.25000000  1
  Pd  Pd15  1  0.00000000  0.81390000  0.75000000  1
