# generated using pymatgen
data_V2Cu3Pb(ClO4)2
_symmetry_space_group_name_H-M   'P 1'
_cell_length_a   9.11084400
_cell_length_b   9.40467400
_cell_length_c   11.24018600
_cell_angle_alpha   90.00000000
_cell_angle_beta   90.00000000
_cell_angle_gamma   90.00000000
_symmetry_Int_Tables_number   1
_chemical_formula_structural   V2Cu3Pb(ClO4)2
_chemical_formula_sum   'V8 Cu12 Pb4 Cl8 O32'
_cell_volume   963.10991610
_cell_formula_units_Z   4
loop_
 _symmetry_equiv_pos_site_id
 _symmetry_equiv_pos_as_xyz
  1  'x, y, z'
loop_
 _atom_site_type_symbol
 _atom_site_label
 _atom_site_symmetry_multiplicity
 _atom_site_fract_x
 _atom_site_fract_y
 _atom_site_fract_z
 _atom_site_occupancy
  V  V0  1  0.50000000  0.25000000  0.29713900  1
  V  V1  1  0.00000000  0.75000000  0.20286100  1
  V  V2  1  0.00000000  0.25000000  0.20286100  1
  V  V3  1  0.50000000  0.75000000  0.29713900  1
  V  V4  1  0.00000000  0.75000000  0.79713900  1
  V  V5  1  0.50000000  0.25000000  0.70286100  1
  V  V6  1  0.50000000  0.75000000  0.70286100  1
  V  V7  1  0.00000000  0.25000000  0.79713900  1
  Cu  Cu8  1  0.00000000  0.50000000  0.00000000  1
  Cu  Cu9  1  0.00000000  0.00000000  0.00000000  1
  Cu  Cu10  1  0.24931900  0.00000000  0.67232500  1
  Cu  Cu11  1  0.25068100  0.50000000  0.82767500  1
  Cu  Cu12  1  0.24931900  0.50000000  0.32767500  1
  Cu  Cu13  1  0.25068100  0.00000000  0.17232500  1
  Cu  Cu14  1  0.50000000  0.00000000  0.50000000  1
  Cu  Cu15  1  0.50000000  0.50000000  0.50000000  1
  Cu  Cu16  1  0.74931900  0.50000000  0.17232500  1
  Cu  Cu17  1  0.75068100  0.00000000  0.32767500  1
  Cu  Cu18  1  0.74931900  0.00000000  0.82767500  1
  Cu  Cu19  1  0.75068100  0.50000000  0.67232500  1
  Pb  Pb20  1  0.00000000  0.75000000  0.50000000  1
  Pb  Pb21  1  0.50000000  0.75000000  0.00000000  1
  Pb  Pb22  1  0.50000000  0.25000000  0.00000000  1
  Pb  Pb23  1  0.00000000  0.25000000  0.50000000  1
  Cl  Cl24  1  0.18235600  0.00000000  0.41281200  1
  Cl  Cl25  1  0.31764400  0.50000000  0.08718800  1
  Cl  Cl26  1  0.68235600  0.00000000  0.08718800  1
  Cl  Cl27  1  0.81764400  0.50000000  0.41281200  1
  Cl  Cl28  1  0.68235600  0.50000000  0.91281200  1
  Cl  Cl29  1  0.81764400  0.00000000  0.58718800  1
  Cl  Cl30  1  0.18235600  0.50000000  0.58718800  1
  Cl  Cl31  1  0.31764400  0.00000000  0.91281200  1
  O  O32  1  0.59983200  0.86688200  0.39163500  1
  O  O33  1  0.90016800  0.36688200  0.10836500  1
  O  O34  1  0.09983200  0.13311800  0.10836500  1
  O  O35  1  0.40016800  0.63311800  0.39163500  1
  O  O36  1  0.90016800  0.63311800  0.10836500  1
  O  O37  1  0.59983200  0.13311800  0.39163500  1
  O  O38  1  0.40016800  0.36688200  0.39163500  1
  O  O39  1  0.09983200  0.86688200  0.10836500  1
  O  O40  1  0.88539600  0.84396500  0.29658400  1
  O  O41  1  0.11460400  0.84396500  0.70341600  1
  O  O42  1  0.38539600  0.15603500  0.20341600  1
  O  O43  1  0.11460400  0.65603500  0.29658400  1
  O  O44  1  0.61460400  0.65603500  0.20341600  1
  O  O45  1  0.38539600  0.65603500  0.79658400  1
  O  O46  1  0.11460400  0.34396500  0.29658400  1
  O  O47  1  0.38539600  0.84396500  0.20341600  1
  O  O48  1  0.09983200  0.36688200  0.89163500  1
  O  O49  1  0.40016800  0.86688200  0.60836500  1
  O  O50  1  0.59983200  0.63311800  0.60836500  1
  O  O51  1  0.90016800  0.13311800  0.89163500  1
  O  O52  1  0.40016800  0.13311800  0.60836500  1
  O  O53  1  0.09983200  0.63311800  0.89163500  1
  O  O54  1  0.90016800  0.86688200  0.89163500  1
  O  O55  1  0.59983200  0.36688200  0.60836500  1
  O  O56  1  0.38539600  0.34396500  0.79658400  1
  O  O57  1  0.61460400  0.34396500  0.20341600  1
  O  O58  1  0.88539600  0.65603500  0.70341600  1
  O  O59  1  0.61460400  0.15603500  0.79658400  1
  O  O60  1  0.11460400  0.15603500  0.70341600  1
  O  O61  1  0.88539600  0.15603500  0.29658400  1
  O  O62  1  0.61460400  0.84396500  0.79658400  1
  O  O63  1  0.88539600  0.34396500  0.70341600  1
