# generated using pymatgen
data_Li2Mg
_symmetry_space_group_name_H-M   'P 1'
_cell_length_a   5.31898371
_cell_length_b   5.31898371
_cell_length_c   15.12716274
_cell_angle_alpha   90.00000000
_cell_angle_beta   90.00000000
_cell_angle_gamma   120.00000000
_symmetry_Int_Tables_number   1
_chemical_formula_structural   Li2Mg
_chemical_formula_sum   'Li12 Mg6'
_cell_volume   370.63414889
_cell_formula_units_Z   6
loop_
 _symmetry_equiv_pos_site_id
 _symmetry_equiv_pos_as_xyz
  1  'x, y, z'
loop_
 _atom_site_type_symbol
 _atom_site_label
 _atom_site_symmetry_multiplicity
 _atom_site_fract_x
 _atom_site_fract_y
 _atom_site_fract_z
 _atom_site_occupancy
  Li  Li0  1  0.33333000  0.33333000  0.00000000  1
  Li  Li1  1  0.66667000  0.00000000  0.00000000  1
  Li  Li2  1  0.00000000  0.66667000  0.00000000  1
  Li  Li3  1  0.33333333  0.66666667  0.16666667  1
  Li  Li4  1  0.99999667  0.66666333  0.33333333  1
  Li  Li5  1  0.33333667  0.33333333  0.33333333  1
  Li  Li6  1  0.66666667  0.00000333  0.33333333  1
  Li  Li7  1  0.00000000  0.00000000  0.50000000  1
  Li  Li8  1  0.66666333  0.99999667  0.66666667  1
  Li  Li9  1  0.00000333  0.66666667  0.66666667  1
  Li  Li10  1  0.33333333  0.33333667  0.66666667  1
  Li  Li11  1  0.66666667  0.33333333  0.83333333  1
  Mg  Mg12  1  0.66666667  0.33333333  0.16662633  1
  Mg  Mg13  1  0.00000000  0.00000000  0.16670700  1
  Mg  Mg14  1  0.33333333  0.66666667  0.49995967  1
  Mg  Mg15  1  0.66666667  0.33333333  0.50004033  1
  Mg  Mg16  1  0.00000000  0.00000000  0.83329300  1
  Mg  Mg17  1  0.33333333  0.66666667  0.83337367  1
