# generated using pymatgen
data_CuClO2
_symmetry_space_group_name_H-M   'P 1'
_cell_length_a   12.53438600
_cell_length_b   3.67679800
_cell_length_c   6.34156334
_cell_angle_alpha   90.00000000
_cell_angle_beta   110.32074758
_cell_angle_gamma   90.00000000
_symmetry_Int_Tables_number   1
_chemical_formula_structural   CuClO2
_chemical_formula_sum   'Cu4 Cl4 O8'
_cell_volume   274.07055283
_cell_formula_units_Z   4
loop_
 _symmetry_equiv_pos_site_id
 _symmetry_equiv_pos_as_xyz
  1  'x, y, z'
loop_
 _atom_site_type_symbol
 _atom_site_label
 _atom_site_symmetry_multiplicity
 _atom_site_fract_x
 _atom_site_fract_y
 _atom_site_fract_z
 _atom_site_occupancy
  Cu  Cu0  1  0.16841100  0.50000000  0.73622700  1
  Cu  Cu1  1  0.33158900  0.00000000  0.26377300  1
  Cu  Cu2  1  0.66841100  0.00000000  0.73622700  1
  Cu  Cu3  1  0.83158900  0.50000000  0.26377300  1
  Cl  Cl4  1  0.21885700  0.50000000  0.22673500  1
  Cl  Cl5  1  0.28114300  0.00000000  0.77326500  1
  Cl  Cl6  1  0.71885700  0.00000000  0.22673500  1
  Cl  Cl7  1  0.78114300  0.50000000  0.77326500  1
  O  O8  1  0.46970850  0.67418850  0.31422000  1
  O  O9  1  0.03029150  0.17418850  0.68578000  1
  O  O10  1  0.03029150  0.82581150  0.68578000  1
  O  O11  1  0.46970850  0.32581150  0.31422000  1
  O  O12  1  0.96970850  0.17418850  0.31422000  1
  O  O13  1  0.53029150  0.67418850  0.68578000  1
  O  O14  1  0.53029150  0.32581150  0.68578000  1
  O  O15  1  0.96970850  0.82581150  0.31422000  1
