# generated using pymatgen
data_Ba6In2NF
_symmetry_space_group_name_H-M   'P 1'
_cell_length_a   11.27210000
_cell_length_b   11.27210000
_cell_length_c   11.27210000
_cell_angle_alpha   90.00000000
_cell_angle_beta   90.00000000
_cell_angle_gamma   90.00000000
_symmetry_Int_Tables_number   1
_chemical_formula_structural   Ba6In2NF
_chemical_formula_sum   'Ba24 In8 N4 F4'
_cell_volume   1432.23571338
_cell_formula_units_Z   4
loop_
 _symmetry_equiv_pos_site_id
 _symmetry_equiv_pos_as_xyz
  1  'x, y, z'
loop_
 _atom_site_type_symbol
 _atom_site_label
 _atom_site_symmetry_multiplicity
 _atom_site_fract_x
 _atom_site_fract_y
 _atom_site_fract_z
 _atom_site_occupancy
  Ba  Ba0  1  0.75830400  0.00000000  0.00000000  1
  Ba  Ba1  1  0.50000000  0.74169600  0.00000000  1
  Ba  Ba2  1  0.50000000  0.25830400  0.00000000  1
  Ba  Ba3  1  0.00000000  0.00000000  0.75830400  1
  Ba  Ba4  1  0.50000000  0.00000000  0.74169600  1
  Ba  Ba5  1  0.24169600  0.00000000  0.00000000  1
  Ba  Ba6  1  0.75830400  0.50000000  0.50000000  1
  Ba  Ba7  1  0.50000000  0.24169600  0.50000000  1
  Ba  Ba8  1  0.50000000  0.75830400  0.50000000  1
  Ba  Ba9  1  0.00000000  0.50000000  0.25830400  1
  Ba  Ba10  1  0.50000000  0.50000000  0.24169600  1
  Ba  Ba11  1  0.24169600  0.50000000  0.50000000  1
  Ba  Ba12  1  0.25830400  0.00000000  0.50000000  1
  Ba  Ba13  1  0.00000000  0.74169600  0.50000000  1
  Ba  Ba14  1  0.00000000  0.25830400  0.50000000  1
  Ba  Ba15  1  0.50000000  0.00000000  0.25830400  1
  Ba  Ba16  1  0.00000000  0.00000000  0.24169600  1
  Ba  Ba17  1  0.74169600  0.00000000  0.50000000  1
  Ba  Ba18  1  0.25830400  0.50000000  0.00000000  1
  Ba  Ba19  1  0.00000000  0.24169600  0.00000000  1
  Ba  Ba20  1  0.00000000  0.75830400  0.00000000  1
  Ba  Ba21  1  0.50000000  0.50000000  0.75830400  1
  Ba  Ba22  1  0.00000000  0.50000000  0.74169600  1
  Ba  Ba23  1  0.74169600  0.50000000  0.00000000  1
  In  In24  1  0.25000000  0.75000000  0.75000000  1
  In  In25  1  0.25000000  0.25000000  0.75000000  1
  In  In26  1  0.25000000  0.25000000  0.25000000  1
  In  In27  1  0.25000000  0.75000000  0.25000000  1
  In  In28  1  0.75000000  0.75000000  0.25000000  1
  In  In29  1  0.75000000  0.25000000  0.25000000  1
  In  In30  1  0.75000000  0.25000000  0.75000000  1
  In  In31  1  0.75000000  0.75000000  0.75000000  1
  N  N32  1  0.00000000  0.00000000  0.00000000  1
  N  N33  1  0.00000000  0.50000000  0.50000000  1
  N  N34  1  0.50000000  0.00000000  0.50000000  1
  N  N35  1  0.50000000  0.50000000  0.00000000  1
  F  F36  1  0.50000000  0.00000000  0.00000000  1
  F  F37  1  0.50000000  0.50000000  0.50000000  1
  F  F38  1  0.00000000  0.00000000  0.50000000  1
  F  F39  1  0.00000000  0.50000000  0.00000000  1
