# generated using pymatgen
data_TbNiB4
_symmetry_space_group_name_H-M   'P 1'
_cell_length_a   7.55107600
_cell_length_b   7.55107600
_cell_length_c   8.53076800
_cell_angle_alpha   90.00000000
_cell_angle_beta   90.00000000
_cell_angle_gamma   90.00000000
_symmetry_Int_Tables_number   1
_chemical_formula_structural   TbNiB4
_chemical_formula_sum   'Tb8 Ni8 B32'
_cell_volume   486.41371730
_cell_formula_units_Z   8
loop_
 _symmetry_equiv_pos_site_id
 _symmetry_equiv_pos_as_xyz
  1  'x, y, z'
loop_
 _atom_site_type_symbol
 _atom_site_label
 _atom_site_symmetry_multiplicity
 _atom_site_fract_x
 _atom_site_fract_y
 _atom_site_fract_z
 _atom_site_occupancy
  Tb  Tb0  1  0.00000000  0.00000000  0.20341500  1
  Tb  Tb1  1  0.00000000  0.00000000  0.79658500  1
  Tb  Tb2  1  0.00000000  0.50000000  0.25000000  1
  Tb  Tb3  1  0.50000000  0.00000000  0.25000000  1
  Tb  Tb4  1  0.50000000  0.50000000  0.70341500  1
  Tb  Tb5  1  0.50000000  0.50000000  0.29658500  1
  Tb  Tb6  1  0.50000000  0.00000000  0.75000000  1
  Tb  Tb7  1  0.00000000  0.50000000  0.75000000  1
  Ni  Ni8  1  0.27157700  0.50000000  0.00000000  1
  Ni  Ni9  1  0.22842300  0.00000000  0.50000000  1
  Ni  Ni10  1  0.00000000  0.22842300  0.50000000  1
  Ni  Ni11  1  0.50000000  0.27157700  0.00000000  1
  Ni  Ni12  1  0.77157700  0.00000000  0.50000000  1
  Ni  Ni13  1  0.72842300  0.50000000  0.00000000  1
  Ni  Ni14  1  0.50000000  0.72842300  0.00000000  1
  Ni  Ni15  1  0.00000000  0.77157700  0.50000000  1
  B  B16  1  0.27539200  0.11158800  0.00000000  1
  B  B17  1  0.22460800  0.38841200  0.50000000  1
  B  B18  1  0.77539200  0.38841200  0.50000000  1
  B  B19  1  0.72460800  0.11158800  0.00000000  1
  B  B20  1  0.38841200  0.22460800  0.50000000  1
  B  B21  1  0.11158800  0.27539200  0.00000000  1
  B  B22  1  0.11158800  0.72460800  0.00000000  1
  B  B23  1  0.38841200  0.77539200  0.50000000  1
  B  B24  1  0.26622050  0.26622050  0.15260450  1
  B  B25  1  0.23377950  0.23377950  0.65260450  1
  B  B26  1  0.76622050  0.23377950  0.34739550  1
  B  B27  1  0.23377950  0.76622050  0.34739550  1
  B  B28  1  0.23377950  0.23377950  0.34739550  1
  B  B29  1  0.26622050  0.26622050  0.84739550  1
  B  B30  1  0.76622050  0.23377950  0.65260450  1
  B  B31  1  0.23377950  0.76622050  0.65260450  1
  B  B32  1  0.77539200  0.61158800  0.50000000  1
  B  B33  1  0.72460800  0.88841200  0.00000000  1
  B  B34  1  0.27539200  0.88841200  0.00000000  1
  B  B35  1  0.22460800  0.61158800  0.50000000  1
  B  B36  1  0.88841200  0.72460800  0.00000000  1
  B  B37  1  0.61158800  0.77539200  0.50000000  1
  B  B38  1  0.61158800  0.22460800  0.50000000  1
  B  B39  1  0.88841200  0.27539200  0.00000000  1
  B  B40  1  0.76622050  0.76622050  0.65260450  1
  B  B41  1  0.73377950  0.73377950  0.15260450  1
  B  B42  1  0.26622050  0.73377950  0.84739550  1
  B  B43  1  0.73377950  0.26622050  0.84739550  1
  B  B44  1  0.73377950  0.73377950  0.84739550  1
  B  B45  1  0.76622050  0.76622050  0.34739550  1
  B  B46  1  0.26622050  0.73377950  0.15260450  1
  B  B47  1  0.73377950  0.26622050  0.15260450  1
