# generated using pymatgen
data_Er2FeC4
_symmetry_space_group_name_H-M   'P 1'
_cell_length_a   4.99445400
_cell_length_b   7.45984000
_cell_length_c   9.49887000
_cell_angle_alpha   90.00000000
_cell_angle_beta   90.00000000
_cell_angle_gamma   90.00000000
_symmetry_Int_Tables_number   1
_chemical_formula_structural   Er2FeC4
_chemical_formula_sum   'Er8 Fe4 C16'
_cell_volume   353.90726206
_cell_formula_units_Z   4
loop_
 _symmetry_equiv_pos_site_id
 _symmetry_equiv_pos_as_xyz
  1  'x, y, z'
loop_
 _atom_site_type_symbol
 _atom_site_label
 _atom_site_symmetry_multiplicity
 _atom_site_fract_x
 _atom_site_fract_y
 _atom_site_fract_z
 _atom_site_occupancy
  Er  Er0  1  0.00000000  0.34444250  0.14461050  1
  Er  Er1  1  0.00000000  0.65555750  0.85538950  1
  Er  Er2  1  0.50000000  0.34444250  0.85538950  1
  Er  Er3  1  0.50000000  0.65555750  0.14461050  1
  Er  Er4  1  0.50000000  0.84444250  0.64461050  1
  Er  Er5  1  0.50000000  0.15555750  0.35538950  1
  Er  Er6  1  0.00000000  0.84444250  0.35538950  1
  Er  Er7  1  0.00000000  0.15555750  0.64461050  1
  Fe  Fe8  1  0.25000000  0.00000000  0.00000000  1
  Fe  Fe9  1  0.75000000  0.00000000  0.00000000  1
  Fe  Fe10  1  0.75000000  0.50000000  0.50000000  1
  Fe  Fe11  1  0.25000000  0.50000000  0.50000000  1
  C  C12  1  0.50000000  0.83383950  0.92194950  1
  C  C13  1  0.50000000  0.16616050  0.07805050  1
  C  C14  1  0.00000000  0.83383950  0.07805050  1
  C  C15  1  0.00000000  0.16616050  0.92194950  1
  C  C16  1  0.50000000  0.66129850  0.87061550  1
  C  C17  1  0.50000000  0.33870150  0.12938450  1
  C  C18  1  0.00000000  0.33870150  0.87061550  1
  C  C19  1  0.00000000  0.66129850  0.12938450  1
  C  C20  1  0.00000000  0.33383950  0.42194950  1
  C  C21  1  0.00000000  0.66616050  0.57805050  1
  C  C22  1  0.50000000  0.33383950  0.57805050  1
  C  C23  1  0.50000000  0.66616050  0.42194950  1
  C  C24  1  0.00000000  0.16129850  0.37061550  1
  C  C25  1  0.00000000  0.83870150  0.62938450  1
  C  C26  1  0.50000000  0.83870150  0.37061550  1
  C  C27  1  0.50000000  0.16129850  0.62938450  1
