# generated using pymatgen
data_KV5Se8
_symmetry_space_group_name_H-M   'P 1'
_cell_length_a   18.71012800
_cell_length_b   3.70184200
_cell_length_c   8.97674147
_cell_angle_alpha   90.00000000
_cell_angle_beta   104.20167241
_cell_angle_gamma   90.00000000
_symmetry_Int_Tables_number   1
_chemical_formula_structural   KV5Se8
_chemical_formula_sum   'K2 V10 Se16'
_cell_volume   602.74480921
_cell_formula_units_Z   2
loop_
 _symmetry_equiv_pos_site_id
 _symmetry_equiv_pos_as_xyz
  1  'x, y, z'
loop_
 _atom_site_type_symbol
 _atom_site_label
 _atom_site_symmetry_multiplicity
 _atom_site_fract_x
 _atom_site_fract_y
 _atom_site_fract_z
 _atom_site_occupancy
  K  K0  1  0.00000000  0.50000000  0.00000000  1
  K  K1  1  0.50000000  0.00000000  0.00000000  1
  V  V2  1  0.00000000  0.00000000  0.50000000  1
  V  V3  1  0.34914400  0.00000000  0.51041200  1
  V  V4  1  0.28778300  0.00000000  0.15118200  1
  V  V5  1  0.21221700  0.50000000  0.84881800  1
  V  V6  1  0.15085600  0.50000000  0.48958800  1
  V  V7  1  0.50000000  0.50000000  0.50000000  1
  V  V8  1  0.84914400  0.50000000  0.51041200  1
  V  V9  1  0.78778300  0.50000000  0.15118200  1
  V  V10  1  0.71221700  0.00000000  0.84881800  1
  V  V11  1  0.65085600  0.00000000  0.48958800  1
  Se  Se12  1  0.42791400  0.00000000  0.32735100  1
  Se  Se13  1  0.41298500  0.50000000  0.67943000  1
  Se  Se14  1  0.33794600  0.50000000  0.01108100  1
  Se  Se15  1  0.26036500  0.50000000  0.34343600  1
  Se  Se16  1  0.23963500  0.00000000  0.65656400  1
  Se  Se17  1  0.16205400  0.00000000  0.98891900  1
  Se  Se18  1  0.08701500  0.00000000  0.32057000  1
  Se  Se19  1  0.07208600  0.50000000  0.67264900  1
  Se  Se20  1  0.92791400  0.50000000  0.32735100  1
  Se  Se21  1  0.91298500  0.00000000  0.67943000  1
  Se  Se22  1  0.83794600  0.00000000  0.01108100  1
  Se  Se23  1  0.76036500  0.00000000  0.34343600  1
  Se  Se24  1  0.73963500  0.50000000  0.65656400  1
  Se  Se25  1  0.66205400  0.50000000  0.98891900  1
  Se  Se26  1  0.58701500  0.50000000  0.32057000  1
  Se  Se27  1  0.57208600  0.00000000  0.67264900  1
