# generated using pymatgen
data_VRh
_symmetry_space_group_name_H-M   'P 1'
_cell_length_a   5.83915000
_cell_length_b   6.71243400
_cell_length_c   2.79638600
_cell_angle_alpha   90.00000000
_cell_angle_beta   90.00000000
_cell_angle_gamma   90.00000000
_symmetry_Int_Tables_number   1
_chemical_formula_structural   VRh
_chemical_formula_sum   'V4 Rh4'
_cell_volume   109.60409477
_cell_formula_units_Z   4
loop_
 _symmetry_equiv_pos_site_id
 _symmetry_equiv_pos_as_xyz
  1  'x, y, z'
loop_
 _atom_site_type_symbol
 _atom_site_label
 _atom_site_symmetry_multiplicity
 _atom_site_fract_x
 _atom_site_fract_y
 _atom_site_fract_z
 _atom_site_occupancy
  V  V0  1  0.29640400  0.00000000  0.00000000  1
  V  V1  1  0.70359600  0.00000000  0.00000000  1
  V  V2  1  0.79640400  0.50000000  0.00000000  1
  V  V3  1  0.20359600  0.50000000  0.00000000  1
  Rh  Rh4  1  0.50000000  0.28570200  0.50000000  1
  Rh  Rh5  1  0.50000000  0.71429800  0.50000000  1
  Rh  Rh6  1  0.00000000  0.78570200  0.50000000  1
  Rh  Rh7  1  0.00000000  0.21429800  0.50000000  1
