# generated using pymatgen
data_TmMg5
_symmetry_space_group_name_H-M   'P 1'
_cell_length_a   12.19946000
_cell_length_b   3.39304200
_cell_length_c   7.39528864
_cell_angle_alpha   90.00000000
_cell_angle_beta   106.30864274
_cell_angle_gamma   90.00000000
_symmetry_Int_Tables_number   1
_chemical_formula_structural   TmMg5
_chemical_formula_sum   'Tm2 Mg10'
_cell_volume   293.79807801
_cell_formula_units_Z   2
loop_
 _symmetry_equiv_pos_site_id
 _symmetry_equiv_pos_as_xyz
  1  'x, y, z'
loop_
 _atom_site_type_symbol
 _atom_site_label
 _atom_site_symmetry_multiplicity
 _atom_site_fract_x
 _atom_site_fract_y
 _atom_site_fract_z
 _atom_site_occupancy
  Tm  Tm0  1  0.62102200  0.00000000  0.74233400  1
  Tm  Tm1  1  0.12102200  0.50000000  0.74233400  1
  Mg  Mg2  1  0.98609700  0.00000000  0.99027300  1
  Mg  Mg3  1  0.78865600  0.50000000  0.07555700  1
  Mg  Mg4  1  0.65805600  0.00000000  0.31423000  1
  Mg  Mg5  1  0.94727800  0.00000000  0.39543400  1
  Mg  Mg6  1  0.83222500  0.50000000  0.64883900  1
  Mg  Mg7  1  0.48609700  0.50000000  0.99027300  1
  Mg  Mg8  1  0.28865600  0.00000000  0.07555700  1
  Mg  Mg9  1  0.15805600  0.50000000  0.31423000  1
  Mg  Mg10  1  0.44727800  0.50000000  0.39543400  1
  Mg  Mg11  1  0.33222500  0.00000000  0.64883900  1
