# generated using pymatgen
data_HoGa3
_symmetry_space_group_name_H-M   'P 1'
_cell_length_a   6.08963975
_cell_length_b   6.08963975
_cell_length_c   35.67942292
_cell_angle_alpha   90.00000000
_cell_angle_beta   90.00000000
_cell_angle_gamma   120.00000000
_symmetry_Int_Tables_number   1
_chemical_formula_structural   HoGa3
_chemical_formula_sum   'Ho15 Ga45'
_cell_volume   1145.86025584
_cell_formula_units_Z   15
loop_
 _symmetry_equiv_pos_site_id
 _symmetry_equiv_pos_as_xyz
  1  'x, y, z'
loop_
 _atom_site_type_symbol
 _atom_site_label
 _atom_site_symmetry_multiplicity
 _atom_site_fract_x
 _atom_site_fract_y
 _atom_site_fract_z
 _atom_site_occupancy
  Ho  Ho0  1  0.00000000  0.00000000  0.13066600  1
  Ho  Ho1  1  0.66666667  0.33333333  0.20266733  1
  Ho  Ho2  1  0.33333333  0.66666667  0.06668267  1
  Ho  Ho3  1  0.33333333  0.66666667  0.26665067  1
  Ho  Ho4  1  0.00000000  0.00000000  0.00000000  1
  Ho  Ho5  1  0.66666667  0.33333333  0.46399933  1
  Ho  Ho6  1  0.33333333  0.66666667  0.53600067  1
  Ho  Ho7  1  0.00000000  0.00000000  0.40001600  1
  Ho  Ho8  1  0.00000000  0.00000000  0.59998400  1
  Ho  Ho9  1  0.66666667  0.33333333  0.33333333  1
  Ho  Ho10  1  0.33333333  0.66666667  0.79733267  1
  Ho  Ho11  1  0.00000000  0.00000000  0.86933400  1
  Ho  Ho12  1  0.66666667  0.33333333  0.73334933  1
  Ho  Ho13  1  0.66666667  0.33333333  0.93331733  1
  Ho  Ho14  1  0.33333333  0.66666667  0.66666667  1
  Ga  Ga15  1  0.37062267  0.18531133  0.06609533  1
  Ga  Ga16  1  0.81468867  0.62937733  0.06609533  1
  Ga  Ga17  1  0.81468867  0.18531133  0.06609533  1
  Ga  Ga18  1  0.85197800  0.14802200  0.26723800  1
  Ga  Ga19  1  0.85197800  0.70395600  0.26723800  1
  Ga  Ga20  1  0.29604400  0.14802200  0.26723800  1
  Ga  Ga21  1  0.99821400  0.49910700  0.13414200  1
  Ga  Ga22  1  0.50089300  0.00178600  0.13414200  1
  Ga  Ga23  1  0.50089300  0.49910700  0.13414200  1
  Ga  Ga24  1  0.16577367  0.83422633  0.19919133  1
  Ga  Ga25  1  0.16577367  0.33154733  0.19919133  1
  Ga  Ga26  1  0.66845267  0.83422633  0.19919133  1
  Ga  Ga27  1  0.50000000  0.00000000  0.00000000  1
  Ga  Ga28  1  0.50000000  0.50000000  0.00000000  1
  Ga  Ga29  1  0.00000000  0.50000000  0.00000000  1
  Ga  Ga30  1  0.03728933  0.51864467  0.39942867  1
  Ga  Ga31  1  0.48135533  0.96271067  0.39942867  1
  Ga  Ga32  1  0.48135533  0.51864467  0.39942867  1
  Ga  Ga33  1  0.51864467  0.48135533  0.60057133  1
  Ga  Ga34  1  0.51864467  0.03728933  0.60057133  1
  Ga  Ga35  1  0.96271067  0.48135533  0.60057133  1
  Ga  Ga36  1  0.66488067  0.83244033  0.46747533  1
  Ga  Ga37  1  0.16755967  0.33511933  0.46747533  1
  Ga  Ga38  1  0.16755967  0.83244033  0.46747533  1
  Ga  Ga39  1  0.83244033  0.16755967  0.53252467  1
  Ga  Ga40  1  0.83244033  0.66488067  0.53252467  1
  Ga  Ga41  1  0.33511933  0.16755967  0.53252467  1
  Ga  Ga42  1  0.16666667  0.33333333  0.33333333  1
  Ga  Ga43  1  0.16666667  0.83333333  0.33333333  1
  Ga  Ga44  1  0.66666667  0.83333333  0.33333333  1
  Ga  Ga45  1  0.70395600  0.85197800  0.73276200  1
  Ga  Ga46  1  0.14802200  0.29604400  0.73276200  1
  Ga  Ga47  1  0.14802200  0.85197800  0.73276200  1
  Ga  Ga48  1  0.18531133  0.81468867  0.93390467  1
  Ga  Ga49  1  0.18531133  0.37062267  0.93390467  1
  Ga  Ga50  1  0.62937733  0.81468867  0.93390467  1
  Ga  Ga51  1  0.33154733  0.16577367  0.80080867  1
  Ga  Ga52  1  0.83422633  0.66845267  0.80080867  1
  Ga  Ga53  1  0.83422633  0.16577367  0.80080867  1
  Ga  Ga54  1  0.49910700  0.50089300  0.86585800  1
  Ga  Ga55  1  0.49910700  0.99821400  0.86585800  1
  Ga  Ga56  1  0.00178600  0.50089300  0.86585800  1
  Ga  Ga57  1  0.83333333  0.66666667  0.66666667  1
  Ga  Ga58  1  0.83333333  0.16666667  0.66666667  1
  Ga  Ga59  1  0.33333333  0.16666667  0.66666667  1
