# generated using pymatgen
data_TbGa2Pd
_symmetry_space_group_name_H-M   'P 1'
_cell_length_a   4.46177000
_cell_length_b   10.18516600
_cell_length_c   6.61636600
_cell_angle_alpha   90.00000000
_cell_angle_beta   90.00000000
_cell_angle_gamma   90.00000000
_symmetry_Int_Tables_number   1
_chemical_formula_structural   TbGa2Pd
_chemical_formula_sum   'Tb4 Ga8 Pd4'
_cell_volume   300.67326383
_cell_formula_units_Z   4
loop_
 _symmetry_equiv_pos_site_id
 _symmetry_equiv_pos_as_xyz
  1  'x, y, z'
loop_
 _atom_site_type_symbol
 _atom_site_label
 _atom_site_symmetry_multiplicity
 _atom_site_fract_x
 _atom_site_fract_y
 _atom_site_fract_z
 _atom_site_occupancy
  Tb  Tb0  1  0.50000000  0.41030600  0.25000000  1
  Tb  Tb1  1  0.00000000  0.08969400  0.75000000  1
  Tb  Tb2  1  0.00000000  0.91030600  0.25000000  1
  Tb  Tb3  1  0.50000000  0.58969400  0.75000000  1
  Ga  Ga4  1  0.50000000  0.12664700  0.05326000  1
  Ga  Ga5  1  0.00000000  0.37335300  0.55326000  1
  Ga  Ga6  1  0.00000000  0.37335300  0.94674000  1
  Ga  Ga7  1  0.50000000  0.12664700  0.44674000  1
  Ga  Ga8  1  0.00000000  0.62664700  0.05326000  1
  Ga  Ga9  1  0.50000000  0.87335300  0.55326000  1
  Ga  Ga10  1  0.50000000  0.87335300  0.94674000  1
  Ga  Ga11  1  0.00000000  0.62664700  0.44674000  1
  Pd  Pd12  1  0.00000000  0.19957300  0.25000000  1
  Pd  Pd13  1  0.50000000  0.30042700  0.75000000  1
  Pd  Pd14  1  0.50000000  0.69957300  0.25000000  1
  Pd  Pd15  1  0.00000000  0.80042700  0.75000000  1
