# generated using pymatgen
data_Sr3Tm
_symmetry_space_group_name_H-M   'P 1'
_cell_length_a   8.04819380
_cell_length_b   8.04819380
_cell_length_c   6.57836700
_cell_angle_alpha   90.00000000
_cell_angle_beta   90.00000000
_cell_angle_gamma   120.00000000
_symmetry_Int_Tables_number   1
_chemical_formula_structural   Sr3Tm
_chemical_formula_sum   'Sr6 Tm2'
_cell_volume   369.01632695
_cell_formula_units_Z   2
loop_
 _symmetry_equiv_pos_site_id
 _symmetry_equiv_pos_as_xyz
  1  'x, y, z'
loop_
 _atom_site_type_symbol
 _atom_site_label
 _atom_site_symmetry_multiplicity
 _atom_site_fract_x
 _atom_site_fract_y
 _atom_site_fract_z
 _atom_site_occupancy
  Sr  Sr0  1  0.34367100  0.17183550  0.75000000  1
  Sr  Sr1  1  0.82816450  0.17183550  0.75000000  1
  Sr  Sr2  1  0.82816450  0.65632900  0.75000000  1
  Sr  Sr3  1  0.65632900  0.82816450  0.25000000  1
  Sr  Sr4  1  0.17183550  0.82816450  0.25000000  1
  Sr  Sr5  1  0.17183550  0.34367100  0.25000000  1
  Tm  Tm6  1  0.66666667  0.33333333  0.25000000  1
  Tm  Tm7  1  0.33333333  0.66666667  0.75000000  1
