# generated using pymatgen
data_LaSn2Pd
_symmetry_space_group_name_H-M   'P 1'
_cell_length_a   4.56283400
_cell_length_b   19.25129000
_cell_length_c   4.69344400
_cell_angle_alpha   90.00000000
_cell_angle_beta   90.00000000
_cell_angle_gamma   90.00000000
_symmetry_Int_Tables_number   1
_chemical_formula_structural   LaSn2Pd
_chemical_formula_sum   'La4 Sn8 Pd4'
_cell_volume   412.27418868
_cell_formula_units_Z   4
loop_
 _symmetry_equiv_pos_site_id
 _symmetry_equiv_pos_as_xyz
  1  'x, y, z'
loop_
 _atom_site_type_symbol
 _atom_site_label
 _atom_site_symmetry_multiplicity
 _atom_site_fract_x
 _atom_site_fract_y
 _atom_site_fract_z
 _atom_site_occupancy
  La  La0  1  0.50000000  0.60767800  0.75000000  1
  La  La1  1  0.00000000  0.89232200  0.25000000  1
  La  La2  1  0.00000000  0.10767800  0.75000000  1
  La  La3  1  0.50000000  0.39232200  0.25000000  1
  Sn  Sn4  1  0.00000000  0.74768800  0.75000000  1
  Sn  Sn5  1  0.50000000  0.75231200  0.25000000  1
  Sn  Sn6  1  0.50000000  0.95874300  0.75000000  1
  Sn  Sn7  1  0.00000000  0.54125700  0.25000000  1
  Sn  Sn8  1  0.50000000  0.24768800  0.75000000  1
  Sn  Sn9  1  0.00000000  0.25231200  0.25000000  1
  Sn  Sn10  1  0.00000000  0.45874300  0.75000000  1
  Sn  Sn11  1  0.50000000  0.04125700  0.25000000  1
  Pd  Pd12  1  0.50000000  0.82366700  0.75000000  1
  Pd  Pd13  1  0.00000000  0.67633300  0.25000000  1
  Pd  Pd14  1  0.00000000  0.32366700  0.75000000  1
  Pd  Pd15  1  0.50000000  0.17633300  0.25000000  1
