# generated using pymatgen
data_RbCr5Te8
_symmetry_space_group_name_H-M   'P 1'
_cell_length_a   20.49538200
_cell_length_b   4.04944000
_cell_length_c   9.66088448
_cell_angle_alpha   90.00000000
_cell_angle_beta   104.28190947
_cell_angle_gamma   90.00000000
_symmetry_Int_Tables_number   1
_chemical_formula_structural   RbCr5Te8
_chemical_formula_sum   'Rb2 Cr10 Te16'
_cell_volume   777.02256634
_cell_formula_units_Z   2
loop_
 _symmetry_equiv_pos_site_id
 _symmetry_equiv_pos_as_xyz
  1  'x, y, z'
loop_
 _atom_site_type_symbol
 _atom_site_label
 _atom_site_symmetry_multiplicity
 _atom_site_fract_x
 _atom_site_fract_y
 _atom_site_fract_z
 _atom_site_occupancy
  Rb  Rb0  1  0.00000000  0.50000000  0.50000000  1
  Rb  Rb1  1  0.50000000  0.00000000  0.50000000  1
  Cr  Cr2  1  0.00000000  0.00000000  0.00000000  1
  Cr  Cr3  1  0.34107600  0.00000000  0.01432100  1
  Cr  Cr4  1  0.29579600  0.00000000  0.66879200  1
  Cr  Cr5  1  0.20420400  0.50000000  0.33120800  1
  Cr  Cr6  1  0.15892400  0.50000000  0.98567900  1
  Cr  Cr7  1  0.50000000  0.50000000  0.00000000  1
  Cr  Cr8  1  0.84107600  0.50000000  0.01432100  1
  Cr  Cr9  1  0.79579600  0.50000000  0.66879200  1
  Cr  Cr10  1  0.70420400  0.00000000  0.33120800  1
  Cr  Cr11  1  0.65892400  0.00000000  0.98567900  1
  Te  Te12  1  0.42732100  0.00000000  0.83947600  1
  Te  Te13  1  0.41118800  0.50000000  0.16908400  1
  Te  Te14  1  0.32864700  0.50000000  0.50899600  1
  Te  Te15  1  0.26064200  0.50000000  0.84266700  1
  Te  Te16  1  0.23935800  0.00000000  0.15733300  1
  Te  Te17  1  0.17135300  0.00000000  0.49100400  1
  Te  Te18  1  0.08881200  0.00000000  0.83091600  1
  Te  Te19  1  0.07267900  0.50000000  0.16052400  1
  Te  Te20  1  0.92732100  0.50000000  0.83947600  1
  Te  Te21  1  0.91118800  0.00000000  0.16908400  1
  Te  Te22  1  0.82864700  0.00000000  0.50899600  1
  Te  Te23  1  0.76064200  0.00000000  0.84266700  1
  Te  Te24  1  0.73935800  0.50000000  0.15733300  1
  Te  Te25  1  0.67135300  0.50000000  0.49100400  1
  Te  Te26  1  0.58881200  0.50000000  0.83091600  1
  Te  Te27  1  0.57267900  0.00000000  0.16052400  1
