# generated using pymatgen
data_Pr2Ge5Rh3
_symmetry_space_group_name_H-M   'P 1'
_cell_length_a   6.09302200
_cell_length_b   10.19450600
_cell_length_c   12.18809600
_cell_angle_alpha   90.00000000
_cell_angle_beta   90.00000000
_cell_angle_gamma   90.00000000
_symmetry_Int_Tables_number   1
_chemical_formula_structural   Pr2Ge5Rh3
_chemical_formula_sum   'Pr8 Ge20 Rh12'
_cell_volume   757.06784079
_cell_formula_units_Z   4
loop_
 _symmetry_equiv_pos_site_id
 _symmetry_equiv_pos_as_xyz
  1  'x, y, z'
loop_
 _atom_site_type_symbol
 _atom_site_label
 _atom_site_symmetry_multiplicity
 _atom_site_fract_x
 _atom_site_fract_y
 _atom_site_fract_z
 _atom_site_occupancy
  Pr  Pr0  1  0.50000000  0.26841600  0.86669400  1
  Pr  Pr1  1  0.50000000  0.73158400  0.13330600  1
  Pr  Pr2  1  0.00000000  0.26841600  0.13330600  1
  Pr  Pr3  1  0.00000000  0.73158400  0.86669400  1
  Pr  Pr4  1  0.00000000  0.76841600  0.36669400  1
  Pr  Pr5  1  0.00000000  0.23158400  0.63330600  1
  Pr  Pr6  1  0.50000000  0.76841600  0.63330600  1
  Pr  Pr7  1  0.50000000  0.23158400  0.36669400  1
  Ge  Ge8  1  0.75000000  0.50000000  0.00000000  1
  Ge  Ge9  1  0.25000000  0.50000000  0.00000000  1
  Ge  Ge10  1  0.25000000  0.50000000  0.27824300  1
  Ge  Ge11  1  0.25000000  0.50000000  0.72175700  1
  Ge  Ge12  1  0.75000000  0.50000000  0.72175700  1
  Ge  Ge13  1  0.75000000  0.50000000  0.27824300  1
  Ge  Ge14  1  0.00000000  0.83897850  0.09939050  1
  Ge  Ge15  1  0.00000000  0.16102150  0.90060950  1
  Ge  Ge16  1  0.50000000  0.83897850  0.90060950  1
  Ge  Ge17  1  0.50000000  0.16102150  0.09939050  1
  Ge  Ge18  1  0.25000000  0.00000000  0.50000000  1
  Ge  Ge19  1  0.75000000  0.00000000  0.50000000  1
  Ge  Ge20  1  0.75000000  0.00000000  0.77824300  1
  Ge  Ge21  1  0.75000000  0.00000000  0.22175700  1
  Ge  Ge22  1  0.25000000  0.00000000  0.22175700  1
  Ge  Ge23  1  0.25000000  0.00000000  0.77824300  1
  Ge  Ge24  1  0.50000000  0.33897850  0.59939050  1
  Ge  Ge25  1  0.50000000  0.66102150  0.40060950  1
  Ge  Ge26  1  0.00000000  0.33897850  0.40060950  1
  Ge  Ge27  1  0.00000000  0.66102150  0.59939050  1
  Rh  Rh28  1  0.00000000  0.60519600  0.14077900  1
  Rh  Rh29  1  0.00000000  0.39480400  0.85922100  1
  Rh  Rh30  1  0.50000000  0.60519600  0.85922100  1
  Rh  Rh31  1  0.50000000  0.39480400  0.14077900  1
  Rh  Rh32  1  0.75000000  0.00000000  0.00000000  1
  Rh  Rh33  1  0.25000000  0.00000000  0.00000000  1
  Rh  Rh34  1  0.50000000  0.10519600  0.64077900  1
  Rh  Rh35  1  0.50000000  0.89480400  0.35922100  1
  Rh  Rh36  1  0.00000000  0.10519600  0.35922100  1
  Rh  Rh37  1  0.00000000  0.89480400  0.64077900  1
  Rh  Rh38  1  0.25000000  0.50000000  0.50000000  1
  Rh  Rh39  1  0.75000000  0.50000000  0.50000000  1
