# generated using pymatgen
data_Hf6Al16Os7
_symmetry_space_group_name_H-M   'P 1'
_cell_length_a   12.31381200
_cell_length_b   12.31381200
_cell_length_c   12.31381200
_cell_angle_alpha   90.00000000
_cell_angle_beta   90.00000000
_cell_angle_gamma   90.00000000
_symmetry_Int_Tables_number   1
_chemical_formula_structural   Hf6Al16Os7
_chemical_formula_sum   'Hf24 Al64 Os28'
_cell_volume   1867.14289454
_cell_formula_units_Z   4
loop_
 _symmetry_equiv_pos_site_id
 _symmetry_equiv_pos_as_xyz
  1  'x, y, z'
loop_
 _atom_site_type_symbol
 _atom_site_label
 _atom_site_symmetry_multiplicity
 _atom_site_fract_x
 _atom_site_fract_y
 _atom_site_fract_z
 _atom_site_occupancy
  Hf  Hf0  1  0.79478400  0.00000000  0.00000000  1
  Hf  Hf1  1  0.20521600  0.00000000  0.00000000  1
  Hf  Hf2  1  0.50000000  0.29478400  0.00000000  1
  Hf  Hf3  1  0.00000000  0.00000000  0.79478400  1
  Hf  Hf4  1  0.50000000  0.70521600  0.00000000  1
  Hf  Hf5  1  0.50000000  0.00000000  0.70521600  1
  Hf  Hf6  1  0.79478400  0.50000000  0.50000000  1
  Hf  Hf7  1  0.20521600  0.50000000  0.50000000  1
  Hf  Hf8  1  0.50000000  0.79478400  0.50000000  1
  Hf  Hf9  1  0.00000000  0.50000000  0.29478400  1
  Hf  Hf10  1  0.50000000  0.20521600  0.50000000  1
  Hf  Hf11  1  0.50000000  0.50000000  0.20521600  1
  Hf  Hf12  1  0.29478400  0.00000000  0.50000000  1
  Hf  Hf13  1  0.70521600  0.00000000  0.50000000  1
  Hf  Hf14  1  0.00000000  0.29478400  0.50000000  1
  Hf  Hf15  1  0.50000000  0.00000000  0.29478400  1
  Hf  Hf16  1  0.00000000  0.70521600  0.50000000  1
  Hf  Hf17  1  0.00000000  0.00000000  0.20521600  1
  Hf  Hf18  1  0.29478400  0.50000000  0.00000000  1
  Hf  Hf19  1  0.70521600  0.50000000  0.00000000  1
  Hf  Hf20  1  0.00000000  0.79478400  0.00000000  1
  Hf  Hf21  1  0.50000000  0.50000000  0.79478400  1
  Hf  Hf22  1  0.00000000  0.20521600  0.00000000  1
  Hf  Hf23  1  0.00000000  0.50000000  0.70521600  1
  Al  Al24  1  0.33662800  0.33662800  0.83662800  1
  Al  Al25  1  0.16337200  0.16337200  0.83662800  1
  Al  Al26  1  0.33662800  0.16337200  0.66337200  1
  Al  Al27  1  0.16337200  0.33662800  0.66337200  1
  Al  Al28  1  0.16337200  0.66337200  0.66337200  1
  Al  Al29  1  0.33662800  0.83662800  0.66337200  1
  Al  Al30  1  0.33662800  0.66337200  0.83662800  1
  Al  Al31  1  0.16337200  0.83662800  0.83662800  1
  Al  Al32  1  0.11976000  0.11976000  0.61976000  1
  Al  Al33  1  0.88024000  0.88024000  0.61976000  1
  Al  Al34  1  0.61976000  0.88024000  0.88024000  1
  Al  Al35  1  0.38024000  0.11976000  0.88024000  1
  Al  Al36  1  0.38024000  0.88024000  0.88024000  1
  Al  Al37  1  0.61976000  0.11976000  0.88024000  1
  Al  Al38  1  0.11976000  0.88024000  0.61976000  1
  Al  Al39  1  0.88024000  0.11976000  0.61976000  1
  Al  Al40  1  0.33662800  0.83662800  0.33662800  1
  Al  Al41  1  0.16337200  0.66337200  0.33662800  1
  Al  Al42  1  0.33662800  0.66337200  0.16337200  1
  Al  Al43  1  0.16337200  0.83662800  0.16337200  1
  Al  Al44  1  0.16337200  0.16337200  0.16337200  1
  Al  Al45  1  0.33662800  0.33662800  0.16337200  1
  Al  Al46  1  0.33662800  0.16337200  0.33662800  1
  Al  Al47  1  0.16337200  0.33662800  0.33662800  1
  Al  Al48  1  0.11976000  0.61976000  0.11976000  1
  Al  Al49  1  0.88024000  0.38024000  0.11976000  1
  Al  Al50  1  0.61976000  0.38024000  0.38024000  1
  Al  Al51  1  0.38024000  0.61976000  0.38024000  1
  Al  Al52  1  0.38024000  0.38024000  0.38024000  1
  Al  Al53  1  0.61976000  0.61976000  0.38024000  1
  Al  Al54  1  0.11976000  0.38024000  0.11976000  1
  Al  Al55  1  0.88024000  0.61976000  0.11976000  1
  Al  Al56  1  0.83662800  0.33662800  0.33662800  1
  Al  Al57  1  0.66337200  0.16337200  0.33662800  1
  Al  Al58  1  0.83662800  0.16337200  0.16337200  1
  Al  Al59  1  0.66337200  0.33662800  0.16337200  1
  Al  Al60  1  0.66337200  0.66337200  0.16337200  1
  Al  Al61  1  0.83662800  0.83662800  0.16337200  1
  Al  Al62  1  0.83662800  0.66337200  0.33662800  1
  Al  Al63  1  0.66337200  0.83662800  0.33662800  1
  Al  Al64  1  0.61976000  0.11976000  0.11976000  1
  Al  Al65  1  0.38024000  0.88024000  0.11976000  1
  Al  Al66  1  0.11976000  0.88024000  0.38024000  1
  Al  Al67  1  0.88024000  0.11976000  0.38024000  1
  Al  Al68  1  0.88024000  0.88024000  0.38024000  1
  Al  Al69  1  0.11976000  0.11976000  0.38024000  1
  Al  Al70  1  0.61976000  0.88024000  0.11976000  1
  Al  Al71  1  0.38024000  0.11976000  0.11976000  1
  Al  Al72  1  0.83662800  0.83662800  0.83662800  1
  Al  Al73  1  0.66337200  0.66337200  0.83662800  1
  Al  Al74  1  0.83662800  0.66337200  0.66337200  1
  Al  Al75  1  0.66337200  0.83662800  0.66337200  1
  Al  Al76  1  0.66337200  0.16337200  0.66337200  1
  Al  Al77  1  0.83662800  0.33662800  0.66337200  1
  Al  Al78  1  0.83662800  0.16337200  0.83662800  1
  Al  Al79  1  0.66337200  0.33662800  0.83662800  1
  Al  Al80  1  0.61976000  0.61976000  0.61976000  1
  Al  Al81  1  0.38024000  0.38024000  0.61976000  1
  Al  Al82  1  0.11976000  0.38024000  0.88024000  1
  Al  Al83  1  0.88024000  0.61976000  0.88024000  1
  Al  Al84  1  0.88024000  0.38024000  0.88024000  1
  Al  Al85  1  0.11976000  0.61976000  0.88024000  1
  Al  Al86  1  0.61976000  0.38024000  0.61976000  1
  Al  Al87  1  0.38024000  0.61976000  0.61976000  1
  Os  Os88  1  0.50000000  0.00000000  0.00000000  1
  Os  Os89  1  0.00000000  0.25000000  0.75000000  1
  Os  Os90  1  0.00000000  0.75000000  0.75000000  1
  Os  Os91  1  0.25000000  0.00000000  0.75000000  1
  Os  Os92  1  0.25000000  0.75000000  0.00000000  1
  Os  Os93  1  0.75000000  0.00000000  0.75000000  1
  Os  Os94  1  0.25000000  0.25000000  0.00000000  1
  Os  Os95  1  0.50000000  0.50000000  0.50000000  1
  Os  Os96  1  0.00000000  0.75000000  0.25000000  1
  Os  Os97  1  0.00000000  0.25000000  0.25000000  1
  Os  Os98  1  0.25000000  0.50000000  0.25000000  1
  Os  Os99  1  0.25000000  0.25000000  0.50000000  1
  Os  Os100  1  0.75000000  0.50000000  0.25000000  1
  Os  Os101  1  0.25000000  0.75000000  0.50000000  1
  Os  Os102  1  0.00000000  0.00000000  0.50000000  1
  Os  Os103  1  0.50000000  0.25000000  0.25000000  1
  Os  Os104  1  0.50000000  0.75000000  0.25000000  1
  Os  Os105  1  0.75000000  0.00000000  0.25000000  1
  Os  Os106  1  0.75000000  0.75000000  0.50000000  1
  Os  Os107  1  0.25000000  0.00000000  0.25000000  1
  Os  Os108  1  0.75000000  0.25000000  0.50000000  1
  Os  Os109  1  0.00000000  0.50000000  0.00000000  1
  Os  Os110  1  0.50000000  0.75000000  0.75000000  1
  Os  Os111  1  0.50000000  0.25000000  0.75000000  1
  Os  Os112  1  0.75000000  0.50000000  0.75000000  1
  Os  Os113  1  0.75000000  0.25000000  0.00000000  1
  Os  Os114  1  0.25000000  0.50000000  0.75000000  1
  Os  Os115  1  0.75000000  0.75000000  0.00000000  1
