# generated using pymatgen
data_Sc6Ga16Ru7
_symmetry_space_group_name_H-M   'P 1'
_cell_length_a   12.43414600
_cell_length_b   12.43414600
_cell_length_c   12.43414600
_cell_angle_alpha   90.00000000
_cell_angle_beta   90.00000000
_cell_angle_gamma   90.00000000
_symmetry_Int_Tables_number   1
_chemical_formula_structural   Sc6Ga16Ru7
_chemical_formula_sum   'Sc24 Ga64 Ru28'
_cell_volume   1922.41828001
_cell_formula_units_Z   4
loop_
 _symmetry_equiv_pos_site_id
 _symmetry_equiv_pos_as_xyz
  1  'x, y, z'
loop_
 _atom_site_type_symbol
 _atom_site_label
 _atom_site_symmetry_multiplicity
 _atom_site_fract_x
 _atom_site_fract_y
 _atom_site_fract_z
 _atom_site_occupancy
  Sc  Sc0  1  0.27982700  0.00000000  0.00000000  1
  Sc  Sc1  1  0.72017300  0.00000000  0.00000000  1
  Sc  Sc2  1  0.50000000  0.77982700  0.00000000  1
  Sc  Sc3  1  0.50000000  0.00000000  0.77982700  1
  Sc  Sc4  1  0.50000000  0.22017300  0.00000000  1
  Sc  Sc5  1  0.00000000  0.00000000  0.72017300  1
  Sc  Sc6  1  0.27982700  0.50000000  0.50000000  1
  Sc  Sc7  1  0.72017300  0.50000000  0.50000000  1
  Sc  Sc8  1  0.50000000  0.27982700  0.50000000  1
  Sc  Sc9  1  0.50000000  0.50000000  0.27982700  1
  Sc  Sc10  1  0.50000000  0.72017300  0.50000000  1
  Sc  Sc11  1  0.00000000  0.50000000  0.22017300  1
  Sc  Sc12  1  0.77982700  0.00000000  0.50000000  1
  Sc  Sc13  1  0.22017300  0.00000000  0.50000000  1
  Sc  Sc14  1  0.00000000  0.77982700  0.50000000  1
  Sc  Sc15  1  0.00000000  0.00000000  0.27982700  1
  Sc  Sc16  1  0.00000000  0.22017300  0.50000000  1
  Sc  Sc17  1  0.50000000  0.00000000  0.22017300  1
  Sc  Sc18  1  0.77982700  0.50000000  0.00000000  1
  Sc  Sc19  1  0.22017300  0.50000000  0.00000000  1
  Sc  Sc20  1  0.00000000  0.27982700  0.00000000  1
  Sc  Sc21  1  0.00000000  0.50000000  0.77982700  1
  Sc  Sc22  1  0.00000000  0.72017300  0.00000000  1
  Sc  Sc23  1  0.50000000  0.50000000  0.72017300  1
  Ga  Ga24  1  0.65575267  0.15575267  0.84424733  1
  Ga  Ga25  1  0.34424733  0.84424733  0.84424733  1
  Ga  Ga26  1  0.84424733  0.15575267  0.65575267  1
  Ga  Ga27  1  0.15575267  0.84424733  0.65575267  1
  Ga  Ga28  1  0.15575267  0.15575267  0.65575267  1
  Ga  Ga29  1  0.84424733  0.84424733  0.65575267  1
  Ga  Ga30  1  0.34424733  0.15575267  0.84424733  1
  Ga  Ga31  1  0.65575267  0.84424733  0.84424733  1
  Ga  Ga32  1  0.12354100  0.62354100  0.62354100  1
  Ga  Ga33  1  0.37645900  0.87645900  0.62354100  1
  Ga  Ga34  1  0.12354100  0.87645900  0.87645900  1
  Ga  Ga35  1  0.37645900  0.62354100  0.87645900  1
  Ga  Ga36  1  0.37645900  0.37645900  0.87645900  1
  Ga  Ga37  1  0.12354100  0.12354100  0.87645900  1
  Ga  Ga38  1  0.12354100  0.37645900  0.62354100  1
  Ga  Ga39  1  0.37645900  0.12354100  0.62354100  1
  Ga  Ga40  1  0.65575267  0.65575267  0.34424733  1
  Ga  Ga41  1  0.34424733  0.34424733  0.34424733  1
  Ga  Ga42  1  0.84424733  0.65575267  0.15575267  1
  Ga  Ga43  1  0.15575267  0.34424733  0.15575267  1
  Ga  Ga44  1  0.15575267  0.65575267  0.15575267  1
  Ga  Ga45  1  0.84424733  0.34424733  0.15575267  1
  Ga  Ga46  1  0.34424733  0.65575267  0.34424733  1
  Ga  Ga47  1  0.65575267  0.34424733  0.34424733  1
  Ga  Ga48  1  0.12354100  0.12354100  0.12354100  1
  Ga  Ga49  1  0.37645900  0.37645900  0.12354100  1
  Ga  Ga50  1  0.12354100  0.37645900  0.37645900  1
  Ga  Ga51  1  0.37645900  0.12354100  0.37645900  1
  Ga  Ga52  1  0.37645900  0.87645900  0.37645900  1
  Ga  Ga53  1  0.12354100  0.62354100  0.37645900  1
  Ga  Ga54  1  0.12354100  0.87645900  0.12354100  1
  Ga  Ga55  1  0.37645900  0.62354100  0.12354100  1
  Ga  Ga56  1  0.15575267  0.15575267  0.34424733  1
  Ga  Ga57  1  0.84424733  0.84424733  0.34424733  1
  Ga  Ga58  1  0.34424733  0.15575267  0.15575267  1
  Ga  Ga59  1  0.65575267  0.84424733  0.15575267  1
  Ga  Ga60  1  0.65575267  0.15575267  0.15575267  1
  Ga  Ga61  1  0.34424733  0.84424733  0.15575267  1
  Ga  Ga62  1  0.84424733  0.15575267  0.34424733  1
  Ga  Ga63  1  0.15575267  0.84424733  0.34424733  1
  Ga  Ga64  1  0.62354100  0.62354100  0.12354100  1
  Ga  Ga65  1  0.87645900  0.87645900  0.12354100  1
  Ga  Ga66  1  0.62354100  0.87645900  0.37645900  1
  Ga  Ga67  1  0.87645900  0.62354100  0.37645900  1
  Ga  Ga68  1  0.87645900  0.37645900  0.37645900  1
  Ga  Ga69  1  0.62354100  0.12354100  0.37645900  1
  Ga  Ga70  1  0.62354100  0.37645900  0.12354100  1
  Ga  Ga71  1  0.87645900  0.12354100  0.12354100  1
  Ga  Ga72  1  0.15575267  0.65575267  0.84424733  1
  Ga  Ga73  1  0.84424733  0.34424733  0.84424733  1
  Ga  Ga74  1  0.34424733  0.65575267  0.65575267  1
  Ga  Ga75  1  0.65575267  0.34424733  0.65575267  1
  Ga  Ga76  1  0.65575267  0.65575267  0.65575267  1
  Ga  Ga77  1  0.34424733  0.34424733  0.65575267  1
  Ga  Ga78  1  0.84424733  0.65575267  0.84424733  1
  Ga  Ga79  1  0.15575267  0.34424733  0.84424733  1
  Ga  Ga80  1  0.62354100  0.12354100  0.62354100  1
  Ga  Ga81  1  0.87645900  0.37645900  0.62354100  1
  Ga  Ga82  1  0.62354100  0.37645900  0.87645900  1
  Ga  Ga83  1  0.87645900  0.12354100  0.87645900  1
  Ga  Ga84  1  0.87645900  0.87645900  0.87645900  1
  Ga  Ga85  1  0.62354100  0.62354100  0.87645900  1
  Ga  Ga86  1  0.62354100  0.87645900  0.62354100  1
  Ga  Ga87  1  0.87645900  0.62354100  0.62354100  1
  Ru  Ru88  1  0.00000000  0.75000000  0.75000000  1
  Ru  Ru89  1  0.00000000  0.25000000  0.75000000  1
  Ru  Ru90  1  0.75000000  0.00000000  0.75000000  1
  Ru  Ru91  1  0.25000000  0.25000000  0.00000000  1
  Ru  Ru92  1  0.25000000  0.00000000  0.75000000  1
  Ru  Ru93  1  0.25000000  0.75000000  0.00000000  1
  Ru  Ru94  1  0.00000000  0.00000000  0.00000000  1
  Ru  Ru95  1  0.00000000  0.25000000  0.25000000  1
  Ru  Ru96  1  0.00000000  0.75000000  0.25000000  1
  Ru  Ru97  1  0.75000000  0.50000000  0.25000000  1
  Ru  Ru98  1  0.25000000  0.75000000  0.50000000  1
  Ru  Ru99  1  0.25000000  0.50000000  0.25000000  1
  Ru  Ru100  1  0.25000000  0.25000000  0.50000000  1
  Ru  Ru101  1  0.00000000  0.50000000  0.50000000  1
  Ru  Ru102  1  0.50000000  0.75000000  0.25000000  1
  Ru  Ru103  1  0.50000000  0.25000000  0.25000000  1
  Ru  Ru104  1  0.25000000  0.00000000  0.25000000  1
  Ru  Ru105  1  0.75000000  0.25000000  0.50000000  1
  Ru  Ru106  1  0.75000000  0.00000000  0.25000000  1
  Ru  Ru107  1  0.75000000  0.75000000  0.50000000  1
  Ru  Ru108  1  0.50000000  0.00000000  0.50000000  1
  Ru  Ru109  1  0.50000000  0.25000000  0.75000000  1
  Ru  Ru110  1  0.50000000  0.75000000  0.75000000  1
  Ru  Ru111  1  0.25000000  0.50000000  0.75000000  1
  Ru  Ru112  1  0.75000000  0.75000000  0.00000000  1
  Ru  Ru113  1  0.75000000  0.50000000  0.75000000  1
  Ru  Ru114  1  0.75000000  0.25000000  0.00000000  1
  Ru  Ru115  1  0.50000000  0.50000000  0.00000000  1
