# generated using pymatgen
data_Hg3Sb
_symmetry_space_group_name_H-M   'P 1'
_cell_length_a   6.47914979
_cell_length_b   6.47914979
_cell_length_c   5.77856100
_cell_angle_alpha   90.00000000
_cell_angle_beta   90.00000000
_cell_angle_gamma   120.00000000
_symmetry_Int_Tables_number   1
_chemical_formula_structural   Hg3Sb
_chemical_formula_sum   'Hg6 Sb2'
_cell_volume   210.08080559
_cell_formula_units_Z   2
loop_
 _symmetry_equiv_pos_site_id
 _symmetry_equiv_pos_as_xyz
  1  'x, y, z'
loop_
 _atom_site_type_symbol
 _atom_site_label
 _atom_site_symmetry_multiplicity
 _atom_site_fract_x
 _atom_site_fract_y
 _atom_site_fract_z
 _atom_site_occupancy
  Hg  Hg0  1  0.33545300  0.16772650  0.75000000  1
  Hg  Hg1  1  0.83227350  0.16772650  0.75000000  1
  Hg  Hg2  1  0.83227350  0.66454700  0.75000000  1
  Hg  Hg3  1  0.66454700  0.83227350  0.25000000  1
  Hg  Hg4  1  0.16772650  0.83227350  0.25000000  1
  Hg  Hg5  1  0.16772650  0.33545300  0.25000000  1
  Sb  Sb6  1  0.66666667  0.33333333  0.25000000  1
  Sb  Sb7  1  0.33333333  0.66666667  0.75000000  1
