# generated using pymatgen
data_Cu2GeO4
_symmetry_space_group_name_H-M   'P 1'
_cell_length_a   5.59497200
_cell_length_b   5.59497200
_cell_length_c   10.44576600
_cell_angle_alpha   90.00000000
_cell_angle_beta   90.00000000
_cell_angle_gamma   90.00000000
_symmetry_Int_Tables_number   1
_chemical_formula_structural   Cu2GeO4
_chemical_formula_sum   'Cu8 Ge4 O16'
_cell_volume   326.99124715
_cell_formula_units_Z   4
loop_
 _symmetry_equiv_pos_site_id
 _symmetry_equiv_pos_as_xyz
  1  'x, y, z'
loop_
 _atom_site_type_symbol
 _atom_site_label
 _atom_site_symmetry_multiplicity
 _atom_site_fract_x
 _atom_site_fract_y
 _atom_site_fract_z
 _atom_site_occupancy
  Cu  Cu0  1  0.00000000  0.75000000  0.12500000  1
  Cu  Cu1  1  0.25000000  0.50000000  0.37500000  1
  Cu  Cu2  1  0.75000000  0.50000000  0.37500000  1
  Cu  Cu3  1  0.00000000  0.25000000  0.12500000  1
  Cu  Cu4  1  0.50000000  0.25000000  0.62500000  1
  Cu  Cu5  1  0.75000000  0.00000000  0.87500000  1
  Cu  Cu6  1  0.25000000  0.00000000  0.87500000  1
  Cu  Cu7  1  0.50000000  0.75000000  0.62500000  1
  Ge  Ge8  1  0.50000000  0.00000000  0.25000000  1
  Ge  Ge9  1  0.50000000  0.50000000  0.00000000  1
  Ge  Ge10  1  0.00000000  0.50000000  0.75000000  1
  Ge  Ge11  1  0.00000000  0.00000000  0.50000000  1
  O  O12  1  0.50000000  0.26307700  0.34831500  1
  O  O13  1  0.76307700  0.00000000  0.15168500  1
  O  O14  1  0.23692300  0.00000000  0.15168500  1
  O  O15  1  0.00000000  0.73692300  0.40168500  1
  O  O16  1  0.00000000  0.26307700  0.40168500  1
  O  O17  1  0.23692300  0.50000000  0.09831500  1
  O  O18  1  0.50000000  0.73692300  0.34831500  1
  O  O19  1  0.76307700  0.50000000  0.09831500  1
  O  O20  1  0.00000000  0.76307700  0.84831500  1
  O  O21  1  0.26307700  0.50000000  0.65168500  1
  O  O22  1  0.73692300  0.50000000  0.65168500  1
  O  O23  1  0.50000000  0.23692300  0.90168500  1
  O  O24  1  0.50000000  0.76307700  0.90168500  1
  O  O25  1  0.73692300  0.00000000  0.59831500  1
  O  O26  1  0.00000000  0.23692300  0.84831500  1
  O  O27  1  0.26307700  0.00000000  0.59831500  1
