# generated using pymatgen
data_Sm2Fe17C3
_symmetry_space_group_name_H-M   'P 1'
_cell_length_a   8.70807978
_cell_length_b   8.70807978
_cell_length_c   12.47668800
_cell_angle_alpha   90.00000000
_cell_angle_beta   90.00000000
_cell_angle_gamma   120.00000000
_symmetry_Int_Tables_number   1
_chemical_formula_structural   Sm2Fe17C3
_chemical_formula_sum   'Sm6 Fe51 C9'
_cell_volume   819.35997557
_cell_formula_units_Z   3
loop_
 _symmetry_equiv_pos_site_id
 _symmetry_equiv_pos_as_xyz
  1  'x, y, z'
loop_
 _atom_site_type_symbol
 _atom_site_label
 _atom_site_symmetry_multiplicity
 _atom_site_fract_x
 _atom_site_fract_y
 _atom_site_fract_z
 _atom_site_occupancy
  Sm  Sm0  1  0.33333333  0.66666667  0.01197667  1
  Sm  Sm1  1  0.33333333  0.66666667  0.32135667  1
  Sm  Sm2  1  0.00000000  0.00000000  0.34531000  1
  Sm  Sm3  1  0.00000000  0.00000000  0.65469000  1
  Sm  Sm4  1  0.66666667  0.33333333  0.67864333  1
  Sm  Sm5  1  0.66666667  0.33333333  0.98802333  1
  Fe  Fe6  1  0.33333333  0.66666667  0.76167467  1
  Fe  Fe7  1  0.33333333  0.66666667  0.57165867  1
  Fe  Fe8  1  0.95092717  0.33333333  0.33333333  1
  Fe  Fe9  1  0.00000000  0.28426050  0.00000000  1
  Fe  Fe10  1  0.71573950  0.71573950  0.00000000  1
  Fe  Fe11  1  0.38240617  0.33333333  0.33333333  1
  Fe  Fe12  1  0.00000000  0.71573950  0.00000000  1
  Fe  Fe13  1  0.28426050  0.28426050  0.00000000  1
  Fe  Fe14  1  0.50533433  0.01066867  0.15290667  1
  Fe  Fe15  1  0.98933133  0.49466567  0.15290667  1
  Fe  Fe16  1  0.50533433  0.49466567  0.15290667  1
  Fe  Fe17  1  0.16133233  0.32266467  0.18042667  1
  Fe  Fe18  1  0.16133233  0.83866767  0.18042667  1
  Fe  Fe19  1  0.67733533  0.83866767  0.18042667  1
  Fe  Fe20  1  0.16666667  0.33333333  0.83333333  1
  Fe  Fe21  1  0.33333333  0.16666667  0.16666667  1
  Fe  Fe22  1  0.83333333  0.16666667  0.16666667  1
  Fe  Fe23  1  0.00000000  0.00000000  0.09500800  1
  Fe  Fe24  1  0.00000000  0.00000000  0.90499200  1
  Fe  Fe25  1  0.61759383  0.66666667  0.66666667  1
  Fe  Fe26  1  0.66666667  0.61759383  0.33333333  1
  Fe  Fe27  1  0.38240617  0.04907283  0.33333333  1
  Fe  Fe28  1  0.04907283  0.66666667  0.66666667  1
  Fe  Fe29  1  0.66666667  0.04907283  0.33333333  1
  Fe  Fe30  1  0.95092717  0.61759383  0.33333333  1
  Fe  Fe31  1  0.17200100  0.34400200  0.48624000  1
  Fe  Fe32  1  0.65599800  0.82799900  0.48624000  1
  Fe  Fe33  1  0.17200100  0.82799900  0.48624000  1
  Fe  Fe34  1  0.82799900  0.65599800  0.51376000  1
  Fe  Fe35  1  0.82799900  0.17200100  0.51376000  1
  Fe  Fe36  1  0.34400200  0.17200100  0.51376000  1
  Fe  Fe37  1  0.83333333  0.66666667  0.16666667  1
  Fe  Fe38  1  0.00000000  0.50000000  0.50000000  1
  Fe  Fe39  1  0.50000000  0.50000000  0.50000000  1
  Fe  Fe40  1  0.66666667  0.33333333  0.42834133  1
  Fe  Fe41  1  0.66666667  0.33333333  0.23832533  1
  Fe  Fe42  1  0.28426050  0.00000000  0.00000000  1
  Fe  Fe43  1  0.33333333  0.95092717  0.66666667  1
  Fe  Fe44  1  0.04907283  0.38240617  0.66666667  1
  Fe  Fe45  1  0.71573950  0.00000000  0.00000000  1
  Fe  Fe46  1  0.33333333  0.38240617  0.66666667  1
  Fe  Fe47  1  0.61759383  0.95092717  0.66666667  1
  Fe  Fe48  1  0.83866767  0.67733533  0.81957333  1
  Fe  Fe49  1  0.32266467  0.16133233  0.81957333  1
  Fe  Fe50  1  0.83866767  0.16133233  0.81957333  1
  Fe  Fe51  1  0.49466567  0.98933133  0.84709333  1
  Fe  Fe52  1  0.49466567  0.50533433  0.84709333  1
  Fe  Fe53  1  0.01066867  0.50533433  0.84709333  1
  Fe  Fe54  1  0.50000000  0.00000000  0.50000000  1
  Fe  Fe55  1  0.66666667  0.83333333  0.83333333  1
  Fe  Fe56  1  0.16666667  0.83333333  0.83333333  1
  C  C57  1  0.16666667  0.33333333  0.33333333  1
  C  C58  1  0.66666667  0.83333333  0.33333333  1
  C  C59  1  0.16666667  0.83333333  0.33333333  1
  C  C60  1  0.83333333  0.66666667  0.66666667  1
  C  C61  1  0.33333333  0.16666667  0.66666667  1
  C  C62  1  0.83333333  0.16666667  0.66666667  1
  C  C63  1  0.50000000  0.00000000  0.00000000  1
  C  C64  1  0.00000000  0.50000000  0.00000000  1
  C  C65  1  0.50000000  0.50000000  0.00000000  1
