# generated using pymatgen
data_Pr(BOs)2
_symmetry_space_group_name_H-M   'P 1'
_cell_length_a   6.61361800
_cell_length_b   9.20147000
_cell_length_c   10.10959600
_cell_angle_alpha   90.00000000
_cell_angle_beta   90.00000000
_cell_angle_gamma   90.00000000
_symmetry_Int_Tables_number   1
_chemical_formula_structural   Pr(BOs)2
_chemical_formula_sum   'Pr8 B16 Os16'
_cell_volume   615.21954160
_cell_formula_units_Z   8
loop_
 _symmetry_equiv_pos_site_id
 _symmetry_equiv_pos_as_xyz
  1  'x, y, z'
loop_
 _atom_site_type_symbol
 _atom_site_label
 _atom_site_symmetry_multiplicity
 _atom_site_fract_x
 _atom_site_fract_y
 _atom_site_fract_z
 _atom_site_occupancy
  Pr  Pr0  1  0.00000000  0.00000000  0.00000000  1
  Pr  Pr1  1  0.75000000  0.75000000  0.25000000  1
  Pr  Pr2  1  0.00000000  0.50000000  0.50000000  1
  Pr  Pr3  1  0.75000000  0.25000000  0.75000000  1
  Pr  Pr4  1  0.50000000  0.00000000  0.50000000  1
  Pr  Pr5  1  0.25000000  0.75000000  0.75000000  1
  Pr  Pr6  1  0.50000000  0.50000000  0.00000000  1
  Pr  Pr7  1  0.25000000  0.25000000  0.25000000  1
  B  B8  1  0.50000000  0.18394800  0.00000000  1
  B  B9  1  0.50000000  0.81605200  0.00000000  1
  B  B10  1  0.75000000  0.43394800  0.25000000  1
  B  B11  1  0.75000000  0.06605200  0.25000000  1
  B  B12  1  0.50000000  0.68394800  0.50000000  1
  B  B13  1  0.50000000  0.31605200  0.50000000  1
  B  B14  1  0.75000000  0.93394800  0.75000000  1
  B  B15  1  0.75000000  0.56605200  0.75000000  1
  B  B16  1  0.00000000  0.18394800  0.50000000  1
  B  B17  1  0.00000000  0.81605200  0.50000000  1
  B  B18  1  0.25000000  0.43394800  0.75000000  1
  B  B19  1  0.25000000  0.06605200  0.75000000  1
  B  B20  1  0.00000000  0.68394800  0.00000000  1
  B  B21  1  0.00000000  0.31605200  0.00000000  1
  B  B22  1  0.25000000  0.93394800  0.25000000  1
  B  B23  1  0.25000000  0.56605200  0.25000000  1
  Os  Os24  1  0.75000000  0.25000000  0.11363300  1
  Os  Os25  1  0.50000000  0.00000000  0.13636700  1
  Os  Os26  1  0.00000000  0.00000000  0.36363300  1
  Os  Os27  1  0.75000000  0.25000000  0.38636700  1
  Os  Os28  1  0.75000000  0.75000000  0.61363300  1
  Os  Os29  1  0.50000000  0.50000000  0.63636700  1
  Os  Os30  1  0.00000000  0.50000000  0.86363300  1
  Os  Os31  1  0.75000000  0.75000000  0.88636700  1
  Os  Os32  1  0.25000000  0.25000000  0.61363300  1
  Os  Os33  1  0.00000000  0.00000000  0.63636700  1
  Os  Os34  1  0.50000000  0.00000000  0.86363300  1
  Os  Os35  1  0.25000000  0.25000000  0.88636700  1
  Os  Os36  1  0.25000000  0.75000000  0.11363300  1
  Os  Os37  1  0.00000000  0.50000000  0.13636700  1
  Os  Os38  1  0.50000000  0.50000000  0.36363300  1
  Os  Os39  1  0.25000000  0.75000000  0.38636700  1
