# generated using pymatgen
data_SrTcN3
_symmetry_space_group_name_H-M   'P 1'
_cell_length_a   4.21146200
_cell_length_b   12.62363800
_cell_length_c   5.76897500
_cell_angle_alpha   90.00000000
_cell_angle_beta   90.00000000
_cell_angle_gamma   90.00000000
_symmetry_Int_Tables_number   1
_chemical_formula_structural   SrTcN3
_chemical_formula_sum   'Sr4 Tc4 N12'
_cell_volume   306.70162386
_cell_formula_units_Z   4
loop_
 _symmetry_equiv_pos_site_id
 _symmetry_equiv_pos_as_xyz
  1  'x, y, z'
loop_
 _atom_site_type_symbol
 _atom_site_label
 _atom_site_symmetry_multiplicity
 _atom_site_fract_x
 _atom_site_fract_y
 _atom_site_fract_z
 _atom_site_occupancy
  Sr  Sr0  1  0.50000000  0.87077700  0.25000000  1
  Sr  Sr1  1  0.00000000  0.62922300  0.75000000  1
  Sr  Sr2  1  0.00000000  0.37077700  0.25000000  1
  Sr  Sr3  1  0.50000000  0.12922300  0.75000000  1
  Tc  Tc4  1  0.00000000  0.90488400  0.75000000  1
  Tc  Tc5  1  0.50000000  0.59511600  0.25000000  1
  Tc  Tc6  1  0.50000000  0.40488400  0.75000000  1
  Tc  Tc7  1  0.00000000  0.09511600  0.25000000  1
  N  N8  1  0.15084200  0.69683800  0.25000000  1
  N  N9  1  0.84915800  0.69683800  0.25000000  1
  N  N10  1  0.00000000  0.00000000  0.50000000  1
  N  N11  1  0.34915800  0.80316200  0.75000000  1
  N  N12  1  0.65084200  0.80316200  0.75000000  1
  N  N13  1  0.00000000  0.00000000  0.00000000  1
  N  N14  1  0.65084200  0.19683800  0.25000000  1
  N  N15  1  0.34915800  0.19683800  0.25000000  1
  N  N16  1  0.50000000  0.50000000  0.50000000  1
  N  N17  1  0.84915800  0.30316200  0.75000000  1
  N  N18  1  0.15084200  0.30316200  0.75000000  1
  N  N19  1  0.50000000  0.50000000  0.00000000  1
