# generated using pymatgen
data_TmFeGe2
_symmetry_space_group_name_H-M   'P 1'
_cell_length_a   4.06879800
_cell_length_b   16.73655400
_cell_length_c   4.16508400
_cell_angle_alpha   90.00000000
_cell_angle_beta   90.00000000
_cell_angle_gamma   90.00000000
_symmetry_Int_Tables_number   1
_chemical_formula_structural   TmFeGe2
_chemical_formula_sum   'Tm4 Fe4 Ge8'
_cell_volume   283.63246345
_cell_formula_units_Z   4
loop_
 _symmetry_equiv_pos_site_id
 _symmetry_equiv_pos_as_xyz
  1  'x, y, z'
loop_
 _atom_site_type_symbol
 _atom_site_label
 _atom_site_symmetry_multiplicity
 _atom_site_fract_x
 _atom_site_fract_y
 _atom_site_fract_z
 _atom_site_occupancy
  Tm  Tm0  1  0.50000000  0.60958800  0.75000000  1
  Tm  Tm1  1  0.00000000  0.89041200  0.25000000  1
  Tm  Tm2  1  0.00000000  0.10958800  0.75000000  1
  Tm  Tm3  1  0.50000000  0.39041200  0.25000000  1
  Fe  Fe4  1  0.50000000  0.82109700  0.75000000  1
  Fe  Fe5  1  0.00000000  0.67890300  0.25000000  1
  Fe  Fe6  1  0.00000000  0.32109700  0.75000000  1
  Fe  Fe7  1  0.50000000  0.17890300  0.25000000  1
  Ge  Ge8  1  0.50000000  0.95571400  0.75000000  1
  Ge  Ge9  1  0.00000000  0.54428600  0.25000000  1
  Ge  Ge10  1  0.00000000  0.74766400  0.75000000  1
  Ge  Ge11  1  0.50000000  0.75233600  0.25000000  1
  Ge  Ge12  1  0.00000000  0.45571400  0.75000000  1
  Ge  Ge13  1  0.50000000  0.04428600  0.25000000  1
  Ge  Ge14  1  0.50000000  0.24766400  0.75000000  1
  Ge  Ge15  1  0.00000000  0.25233600  0.25000000  1
