# generated using pymatgen
data_SmZn2
_symmetry_space_group_name_H-M   'P 1'
_cell_length_a   4.55854400
_cell_length_b   7.33612400
_cell_length_c   7.58604400
_cell_angle_alpha   90.00000000
_cell_angle_beta   90.00000000
_cell_angle_gamma   90.00000000
_symmetry_Int_Tables_number   1
_chemical_formula_structural   SmZn2
_chemical_formula_sum   'Sm4 Zn8'
_cell_volume   253.69281756
_cell_formula_units_Z   4
loop_
 _symmetry_equiv_pos_site_id
 _symmetry_equiv_pos_as_xyz
  1  'x, y, z'
loop_
 _atom_site_type_symbol
 _atom_site_label
 _atom_site_symmetry_multiplicity
 _atom_site_fract_x
 _atom_site_fract_y
 _atom_site_fract_z
 _atom_site_occupancy
  Sm  Sm0  1  0.00000000  0.75000000  0.46638400  1
  Sm  Sm1  1  0.00000000  0.25000000  0.53361600  1
  Sm  Sm2  1  0.50000000  0.25000000  0.96638400  1
  Sm  Sm3  1  0.50000000  0.75000000  0.03361600  1
  Zn  Zn4  1  0.00000000  0.04909650  0.16573450  1
  Zn  Zn5  1  0.00000000  0.95090350  0.83426550  1
  Zn  Zn6  1  0.50000000  0.95090350  0.66573450  1
  Zn  Zn7  1  0.50000000  0.04909650  0.33426550  1
  Zn  Zn8  1  0.50000000  0.54909650  0.66573450  1
  Zn  Zn9  1  0.50000000  0.45090350  0.33426550  1
  Zn  Zn10  1  0.00000000  0.45090350  0.16573450  1
  Zn  Zn11  1  0.00000000  0.54909650  0.83426550  1
