# generated using pymatgen
data_Li3Cr2CuO6
_symmetry_space_group_name_H-M   'P 1'
_cell_length_a   12.84912226
_cell_length_b   2.94833267
_cell_length_c   5.88239000
_cell_angle_alpha   90.00000000
_cell_angle_beta   103.09327660
_cell_angle_gamma   90.00000000
_symmetry_Int_Tables_number   1
_chemical_formula_structural   Li3Cr2CuO6
_chemical_formula_sum   'Li6 Cr4 Cu2 O12'
_cell_volume   217.05203266
_cell_formula_units_Z   2
loop_
 _symmetry_equiv_pos_site_id
 _symmetry_equiv_pos_as_xyz
  1  'x, y, z'
loop_
 _atom_site_type_symbol
 _atom_site_label
 _atom_site_symmetry_multiplicity
 _atom_site_fract_x
 _atom_site_fract_y
 _atom_site_fract_z
 _atom_site_occupancy
  Li  Li0  1  0.00000000  0.50000000  0.50000000  1
  Li  Li1  1  0.16243200  0.00000000  0.83254800  1
  Li  Li2  1  0.83756800  0.00000000  0.16745200  1
  Li  Li3  1  0.50000000  0.00000000  0.50000000  1
  Li  Li4  1  0.66243200  0.50000000  0.83254800  1
  Li  Li5  1  0.33756800  0.50000000  0.16745200  1
  Cr  Cr6  1  0.16630400  0.00000000  0.32932100  1
  Cr  Cr7  1  0.83369600  0.00000000  0.67067900  1
  Cr  Cr8  1  0.66630400  0.50000000  0.32932100  1
  Cr  Cr9  1  0.33369600  0.50000000  0.67067900  1
  Cu  Cu10  1  0.00000000  0.50000000  0.00000000  1
  Cu  Cu11  1  0.50000000  0.00000000  0.00000000  1
  O  O12  1  0.16364600  0.50000000  0.09536800  1
  O  O13  1  0.82870000  0.50000000  0.43216600  1
  O  O14  1  0.83635400  0.50000000  0.90463200  1
  O  O15  1  0.99269200  0.00000000  0.76108800  1
  O  O16  1  0.00730800  0.00000000  0.23891200  1
  O  O17  1  0.67130000  0.00000000  0.56783400  1
  O  O18  1  0.66364600  0.00000000  0.09536800  1
  O  O19  1  0.32870000  0.00000000  0.43216600  1
  O  O20  1  0.33635400  0.00000000  0.90463200  1
  O  O21  1  0.49269200  0.50000000  0.76108800  1
  O  O22  1  0.50730800  0.50000000  0.23891200  1
  O  O23  1  0.17130000  0.50000000  0.56783400  1
