# generated using pymatgen
data_Sm2(ReB2)3
_symmetry_space_group_name_H-M   'P 1'
_cell_length_a   6.80609000
_cell_length_b   10.56925000
_cell_length_c   7.56871503
_cell_angle_alpha   90.00000000
_cell_angle_beta   90.98526421
_cell_angle_gamma   90.00000000
_symmetry_Int_Tables_number   1
_chemical_formula_structural   Sm2(ReB2)3
_chemical_formula_sum   'Sm8 Re12 B24'
_cell_volume   544.37703678
_cell_formula_units_Z   4
loop_
 _symmetry_equiv_pos_site_id
 _symmetry_equiv_pos_as_xyz
  1  'x, y, z'
loop_
 _atom_site_type_symbol
 _atom_site_label
 _atom_site_symmetry_multiplicity
 _atom_site_fract_x
 _atom_site_fract_y
 _atom_site_fract_z
 _atom_site_occupancy
  Sm  Sm0  1  0.73154100  0.82673500  0.17549300  1
  Sm  Sm1  1  0.26845900  0.82673500  0.32450700  1
  Sm  Sm2  1  0.26845900  0.17326500  0.82450700  1
  Sm  Sm3  1  0.73154100  0.17326500  0.67549300  1
  Sm  Sm4  1  0.23154100  0.32673500  0.17549300  1
  Sm  Sm5  1  0.76845900  0.32673500  0.32450700  1
  Sm  Sm6  1  0.76845900  0.67326500  0.82450700  1
  Sm  Sm7  1  0.23154100  0.67326500  0.67549300  1
  Re  Re8  1  0.10233250  0.09218650  0.41232500  1
  Re  Re9  1  0.89766750  0.09218650  0.08767500  1
  Re  Re10  1  0.89766750  0.90781350  0.58767500  1
  Re  Re11  1  0.10233250  0.90781350  0.91232500  1
  Re  Re12  1  0.50000000  0.08557900  0.25000000  1
  Re  Re13  1  0.50000000  0.91442100  0.75000000  1
  Re  Re14  1  0.60233250  0.59218650  0.41232500  1
  Re  Re15  1  0.39766750  0.59218650  0.08767500  1
  Re  Re16  1  0.39766750  0.40781350  0.58767500  1
  Re  Re17  1  0.60233250  0.40781350  0.91232500  1
  Re  Re18  1  0.00000000  0.58557900  0.25000000  1
  Re  Re19  1  0.00000000  0.41442100  0.75000000  1
  B  B20  1  0.80082400  0.04599400  0.36847400  1
  B  B21  1  0.19917600  0.04599400  0.13152600  1
  B  B22  1  0.19917600  0.95400600  0.63152600  1
  B  B23  1  0.80082400  0.95400600  0.86847400  1
  B  B24  1  0.62618750  0.21376150  0.02004600  1
  B  B25  1  0.37381250  0.21376150  0.47995400  1
  B  B26  1  0.37381250  0.78623850  0.97995400  1
  B  B27  1  0.62618750  0.78623850  0.52004600  1
  B  B28  1  0.60375200  0.04640900  0.96534000  1
  B  B29  1  0.39624800  0.04640900  0.53466000  1
  B  B30  1  0.39624800  0.95359100  0.03466000  1
  B  B31  1  0.60375200  0.95359100  0.46534000  1
  B  B32  1  0.30082400  0.54599400  0.36847400  1
  B  B33  1  0.69917600  0.54599400  0.13152600  1
  B  B34  1  0.69917600  0.45400600  0.63152600  1
  B  B35  1  0.30082400  0.45400600  0.86847400  1
  B  B36  1  0.12618750  0.71376150  0.02004600  1
  B  B37  1  0.87381250  0.71376150  0.47995400  1
  B  B38  1  0.87381250  0.28623850  0.97995400  1
  B  B39  1  0.12618750  0.28623850  0.52004600  1
  B  B40  1  0.10375200  0.54640900  0.96534000  1
  B  B41  1  0.89624800  0.54640900  0.53466000  1
  B  B42  1  0.89624800  0.45359100  0.03466000  1
  B  B43  1  0.10375200  0.45359100  0.46534000  1
