# generated using pymatgen
data_Li5Mg
_symmetry_space_group_name_H-M   'P 1'
_cell_length_a   11.29169200
_cell_length_b   3.07667000
_cell_length_c   7.23966178
_cell_angle_alpha   90.00000000
_cell_angle_beta   105.20350207
_cell_angle_gamma   90.00000000
_symmetry_Int_Tables_number   1
_chemical_formula_structural   Li5Mg
_chemical_formula_sum   'Li10 Mg2'
_cell_volume   242.70892204
_cell_formula_units_Z   2
loop_
 _symmetry_equiv_pos_site_id
 _symmetry_equiv_pos_as_xyz
  1  'x, y, z'
loop_
 _atom_site_type_symbol
 _atom_site_label
 _atom_site_symmetry_multiplicity
 _atom_site_fract_x
 _atom_site_fract_y
 _atom_site_fract_z
 _atom_site_occupancy
  Li  Li0  1  0.99919500  0.00000000  0.00028400  1
  Li  Li1  1  0.77840500  0.50000000  0.05661300  1
  Li  Li2  1  0.66661700  0.00000000  0.33223900  1
  Li  Li3  1  0.94394900  0.00000000  0.38769100  1
  Li  Li4  1  0.83358200  0.50000000  0.66629000  1
  Li  Li5  1  0.49919500  0.50000000  0.00028400  1
  Li  Li6  1  0.27840500  0.00000000  0.05661300  1
  Li  Li7  1  0.16661700  0.50000000  0.33223900  1
  Li  Li8  1  0.44394900  0.50000000  0.38769100  1
  Li  Li9  1  0.33358200  0.00000000  0.66629000  1
  Mg  Mg10  1  0.61158700  0.00000000  0.72355000  1
  Mg  Mg11  1  0.11158700  0.50000000  0.72355000  1
