# generated using pymatgen
data_Ni3S
_symmetry_space_group_name_H-M   'P 1'
_cell_length_a   5.08592763
_cell_length_b   5.08592763
_cell_length_c   4.01591700
_cell_angle_alpha   90.00000000
_cell_angle_beta   90.00000000
_cell_angle_gamma   120.00000000
_symmetry_Int_Tables_number   1
_chemical_formula_structural   Ni3S
_chemical_formula_sum   'Ni6 S2'
_cell_volume   89.96129792
_cell_formula_units_Z   2
loop_
 _symmetry_equiv_pos_site_id
 _symmetry_equiv_pos_as_xyz
  1  'x, y, z'
loop_
 _atom_site_type_symbol
 _atom_site_label
 _atom_site_symmetry_multiplicity
 _atom_site_fract_x
 _atom_site_fract_y
 _atom_site_fract_z
 _atom_site_occupancy
  Ni  Ni0  1  0.33371500  0.16685750  0.75000000  1
  Ni  Ni1  1  0.83314250  0.16685750  0.75000000  1
  Ni  Ni2  1  0.83314250  0.66628500  0.75000000  1
  Ni  Ni3  1  0.66628500  0.83314250  0.25000000  1
  Ni  Ni4  1  0.16685750  0.83314250  0.25000000  1
  Ni  Ni5  1  0.16685750  0.33371500  0.25000000  1
  S  S6  1  0.66666667  0.33333333  0.25000000  1
  S  S7  1  0.33333333  0.66666667  0.75000000  1
