# generated using pymatgen
data_Mg5Hg
_symmetry_space_group_name_H-M   'P 1'
_cell_length_a   5.46885206
_cell_length_b   5.46885206
_cell_length_c   15.40289034
_cell_angle_alpha   90.00000000
_cell_angle_beta   90.00000000
_cell_angle_gamma   120.00000000
_symmetry_Int_Tables_number   1
_chemical_formula_structural   Mg5Hg
_chemical_formula_sum   'Mg15 Hg3'
_cell_volume   398.95618790
_cell_formula_units_Z   3
loop_
 _symmetry_equiv_pos_site_id
 _symmetry_equiv_pos_as_xyz
  1  'x, y, z'
loop_
 _atom_site_type_symbol
 _atom_site_label
 _atom_site_symmetry_multiplicity
 _atom_site_fract_x
 _atom_site_fract_y
 _atom_site_fract_z
 _atom_site_occupancy
  Mg  Mg0  1  0.99801333  0.66666667  0.16666667  1
  Mg  Mg1  1  0.66865333  0.00198667  0.16666667  1
  Mg  Mg2  1  0.33333333  0.33134667  0.16666667  1
  Mg  Mg3  1  0.66666667  0.33333333  0.00035533  1
  Mg  Mg4  1  0.00000000  0.00000000  0.33297800  1
  Mg  Mg5  1  0.66468000  0.00000000  0.50000000  1
  Mg  Mg6  1  0.33532000  0.33532000  0.50000000  1
  Mg  Mg7  1  0.00000000  0.66468000  0.50000000  1
  Mg  Mg8  1  0.33333333  0.66666667  0.33368867  1
  Mg  Mg9  1  0.66666667  0.33333333  0.66631133  1
  Mg  Mg10  1  0.33134667  0.33333333  0.83333333  1
  Mg  Mg11  1  0.00198667  0.66865333  0.83333333  1
  Mg  Mg12  1  0.66666667  0.99801333  0.83333333  1
  Mg  Mg13  1  0.00000000  0.00000000  0.66702200  1
  Mg  Mg14  1  0.33333333  0.66666667  0.99964467  1
  Hg  Hg15  1  0.00000000  0.00000000  0.00000000  1
  Hg  Hg16  1  0.66666667  0.33333333  0.33333333  1
  Hg  Hg17  1  0.33333333  0.66666667  0.66666667  1
