# generated using pymatgen
data_Lu2Ni12P7
_symmetry_space_group_name_H-M   'P 1'
_cell_length_a   9.00757048
_cell_length_b   9.00757048
_cell_length_c   3.64714800
_cell_angle_alpha   90.00000000
_cell_angle_beta   90.00000000
_cell_angle_gamma   120.00000000
_symmetry_Int_Tables_number   1
_chemical_formula_structural   Lu2Ni12P7
_chemical_formula_sum   'Lu2 Ni12 P7'
_cell_volume   256.27093697
_cell_formula_units_Z   1
loop_
 _symmetry_equiv_pos_site_id
 _symmetry_equiv_pos_as_xyz
  1  'x, y, z'
loop_
 _atom_site_type_symbol
 _atom_site_label
 _atom_site_symmetry_multiplicity
 _atom_site_fract_x
 _atom_site_fract_y
 _atom_site_fract_z
 _atom_site_occupancy
  Lu  Lu0  1  0.00000000  0.00000000  0.00000000  1
  Lu  Lu1  1  0.33333333  0.66666667  0.50000000  1
  Ni  Ni2  1  0.81975100  0.60934300  0.00000000  1
  Ni  Ni3  1  0.39065700  0.21040800  0.00000000  1
  Ni  Ni4  1  0.78959200  0.18024900  0.00000000  1
  Ni  Ni5  1  0.04840500  0.76510900  0.50000000  1
  Ni  Ni6  1  0.23489100  0.28329600  0.50000000  1
  Ni  Ni7  1  0.71670400  0.95159500  0.50000000  1
  Ni  Ni8  1  0.10330100  0.39441700  0.00000000  1
  Ni  Ni9  1  0.60558300  0.70888400  0.00000000  1
  Ni  Ni10  1  0.29111600  0.89669900  0.00000000  1
  Ni  Ni11  1  0.88337900  0.42706800  0.50000000  1
  Ni  Ni12  1  0.57293200  0.45631100  0.50000000  1
  Ni  Ni13  1  0.54368900  0.11662100  0.50000000  1
  P  P14  1  0.78034000  0.74156500  0.50000000  1
  P  P15  1  0.25843500  0.03877500  0.50000000  1
  P  P16  1  0.96122500  0.21966000  0.50000000  1
  P  P17  1  0.07464500  0.62494300  0.00000000  1
  P  P18  1  0.37505700  0.44970200  0.00000000  1
  P  P19  1  0.55029800  0.92535500  0.00000000  1
  P  P20  1  0.66666667  0.33333333  0.00000000  1
