# generated using pymatgen
data_Mn4As3
_symmetry_space_group_name_H-M   'P 1'
_cell_length_a   13.00992200
_cell_length_b   3.53489600
_cell_length_c   9.39959344
_cell_angle_alpha   90.00000000
_cell_angle_beta   103.84735955
_cell_angle_gamma   90.00000000
_symmetry_Int_Tables_number   1
_chemical_formula_structural   Mn4As3
_chemical_formula_sum   'Mn16 As12'
_cell_volume   419.71197138
_cell_formula_units_Z   4
loop_
 _symmetry_equiv_pos_site_id
 _symmetry_equiv_pos_as_xyz
  1  'x, y, z'
loop_
 _atom_site_type_symbol
 _atom_site_label
 _atom_site_symmetry_multiplicity
 _atom_site_fract_x
 _atom_site_fract_y
 _atom_site_fract_z
 _atom_site_occupancy
  Mn  Mn0  1  0.78276400  0.00000000  0.83404800  1
  Mn  Mn1  1  0.71723600  0.50000000  0.16595200  1
  Mn  Mn2  1  0.65694200  0.00000000  0.45023300  1
  Mn  Mn3  1  0.84305800  0.50000000  0.54976700  1
  Mn  Mn4  1  0.56783900  0.00000000  0.71236400  1
  Mn  Mn5  1  0.93216100  0.50000000  0.28763600  1
  Mn  Mn6  1  0.00000000  0.00000000  0.50000000  1
  Mn  Mn7  1  0.00000000  0.00000000  0.00000000  1
  Mn  Mn8  1  0.28276400  0.50000000  0.83404800  1
  Mn  Mn9  1  0.21723600  0.00000000  0.16595200  1
  Mn  Mn10  1  0.15694200  0.50000000  0.45023300  1
  Mn  Mn11  1  0.34305800  0.00000000  0.54976700  1
  Mn  Mn12  1  0.06783900  0.50000000  0.71236400  1
  Mn  Mn13  1  0.43216100  0.00000000  0.28763600  1
  Mn  Mn14  1  0.50000000  0.50000000  0.50000000  1
  Mn  Mn15  1  0.50000000  0.50000000  0.00000000  1
  As  As16  1  0.93751900  0.00000000  0.72670700  1
  As  As17  1  0.56248100  0.50000000  0.27329300  1
  As  As18  1  0.81347900  0.00000000  0.34658400  1
  As  As19  1  0.68652100  0.50000000  0.65341600  1
  As  As20  1  0.63835300  0.00000000  0.97923000  1
  As  As21  1  0.86164700  0.50000000  0.02077000  1
  As  As22  1  0.43751900  0.50000000  0.72670700  1
  As  As23  1  0.06248100  0.00000000  0.27329300  1
  As  As24  1  0.31347900  0.50000000  0.34658400  1
  As  As25  1  0.18652100  0.00000000  0.65341600  1
  As  As26  1  0.13835300  0.50000000  0.97923000  1
  As  As27  1  0.36164700  0.00000000  0.02077000  1
