# generated using pymatgen
data_Ba2Sb
_symmetry_space_group_name_H-M   'P 1'
_cell_length_a   5.29866600
_cell_length_b   5.29866600
_cell_length_c   19.04278800
_cell_angle_alpha   90.00000000
_cell_angle_beta   90.00000000
_cell_angle_gamma   90.00000000
_symmetry_Int_Tables_number   1
_chemical_formula_structural   Ba2Sb
_chemical_formula_sum   'Ba8 Sb4'
_cell_volume   534.64267617
_cell_formula_units_Z   4
loop_
 _symmetry_equiv_pos_site_id
 _symmetry_equiv_pos_as_xyz
  1  'x, y, z'
loop_
 _atom_site_type_symbol
 _atom_site_label
 _atom_site_symmetry_multiplicity
 _atom_site_fract_x
 _atom_site_fract_y
 _atom_site_fract_z
 _atom_site_occupancy
  Ba  Ba0  1  0.00000000  0.00000000  0.31982000  1
  Ba  Ba1  1  0.50000000  0.50000000  0.18018000  1
  Ba  Ba2  1  0.00000000  0.50000000  0.00000000  1
  Ba  Ba3  1  0.50000000  0.00000000  0.00000000  1
  Ba  Ba4  1  0.50000000  0.50000000  0.81982000  1
  Ba  Ba5  1  0.00000000  0.00000000  0.68018000  1
  Ba  Ba6  1  0.50000000  0.00000000  0.50000000  1
  Ba  Ba7  1  0.00000000  0.50000000  0.50000000  1
  Sb  Sb8  1  0.50000000  0.50000000  0.36631800  1
  Sb  Sb9  1  0.00000000  0.00000000  0.13368200  1
  Sb  Sb10  1  0.00000000  0.00000000  0.86631800  1
  Sb  Sb11  1  0.50000000  0.50000000  0.63368200  1
