# generated using pymatgen
data_YErRu2
_symmetry_space_group_name_H-M   'P 1'
_cell_length_a   6.77991200
_cell_length_b   6.77991200
_cell_length_c   6.77991200
_cell_angle_alpha   90.00000000
_cell_angle_beta   90.00000000
_cell_angle_gamma   90.00000000
_symmetry_Int_Tables_number   1
_chemical_formula_structural   YErRu2
_chemical_formula_sum   'Y4 Er4 Ru8'
_cell_volume   311.65361650
_cell_formula_units_Z   4
loop_
 _symmetry_equiv_pos_site_id
 _symmetry_equiv_pos_as_xyz
  1  'x, y, z'
loop_
 _atom_site_type_symbol
 _atom_site_label
 _atom_site_symmetry_multiplicity
 _atom_site_fract_x
 _atom_site_fract_y
 _atom_site_fract_z
 _atom_site_occupancy
  Y  Y0  1  0.00000000  0.00000000  0.00000000  1
  Y  Y1  1  0.00000000  0.50000000  0.50000000  1
  Y  Y2  1  0.50000000  0.00000000  0.50000000  1
  Y  Y3  1  0.50000000  0.50000000  0.00000000  1
  Er  Er4  1  0.50000000  0.00000000  0.00000000  1
  Er  Er5  1  0.50000000  0.50000000  0.50000000  1
  Er  Er6  1  0.00000000  0.00000000  0.50000000  1
  Er  Er7  1  0.00000000  0.50000000  0.00000000  1
  Ru  Ru8  1  0.25000000  0.75000000  0.75000000  1
  Ru  Ru9  1  0.25000000  0.25000000  0.75000000  1
  Ru  Ru10  1  0.25000000  0.25000000  0.25000000  1
  Ru  Ru11  1  0.25000000  0.75000000  0.25000000  1
  Ru  Ru12  1  0.75000000  0.75000000  0.25000000  1
  Ru  Ru13  1  0.75000000  0.25000000  0.25000000  1
  Ru  Ru14  1  0.75000000  0.25000000  0.75000000  1
  Ru  Ru15  1  0.75000000  0.75000000  0.75000000  1
