# generated using pymatgen
data_HoCoC2
_symmetry_space_group_name_H-M   'P 1'
_cell_length_a   4.50412600
_cell_length_b   5.98447200
_cell_length_c   3.53977000
_cell_angle_alpha   90.00000000
_cell_angle_beta   90.00000000
_cell_angle_gamma   90.00000000
_symmetry_Int_Tables_number   1
_chemical_formula_structural   HoCoC2
_chemical_formula_sum   'Ho2 Co2 C4'
_cell_volume   95.41384879
_cell_formula_units_Z   2
loop_
 _symmetry_equiv_pos_site_id
 _symmetry_equiv_pos_as_xyz
  1  'x, y, z'
loop_
 _atom_site_type_symbol
 _atom_site_label
 _atom_site_symmetry_multiplicity
 _atom_site_fract_x
 _atom_site_fract_y
 _atom_site_fract_z
 _atom_site_occupancy
  Ho  Ho0  1  0.50000000  0.50110200  0.00000000  1
  Ho  Ho1  1  0.00000000  0.00110200  0.00000000  1
  Co  Co2  1  0.50000000  0.88415500  0.50000000  1
  Co  Co3  1  0.00000000  0.38415500  0.50000000  1
  C  C4  1  0.34683100  0.19487200  0.50000000  1
  C  C5  1  0.65316900  0.19487200  0.50000000  1
  C  C6  1  0.84683100  0.69487200  0.50000000  1
  C  C7  1  0.15316900  0.69487200  0.50000000  1
