# generated using pymatgen
data_Ba(Sb3Ru)4
_symmetry_space_group_name_H-M   'P 1'
_cell_length_a   9.43818600
_cell_length_b   9.43818600
_cell_length_c   9.43818600
_cell_angle_alpha   90.00000000
_cell_angle_beta   90.00000000
_cell_angle_gamma   90.00000000
_symmetry_Int_Tables_number   1
_chemical_formula_structural   Ba(Sb3Ru)4
_chemical_formula_sum   'Ba2 Sb24 Ru8'
_cell_volume   840.74752097
_cell_formula_units_Z   2
loop_
 _symmetry_equiv_pos_site_id
 _symmetry_equiv_pos_as_xyz
  1  'x, y, z'
loop_
 _atom_site_type_symbol
 _atom_site_label
 _atom_site_symmetry_multiplicity
 _atom_site_fract_x
 _atom_site_fract_y
 _atom_site_fract_z
 _atom_site_occupancy
  Ba  Ba0  1  0.00000000  0.00000000  0.00000000  1
  Ba  Ba1  1  0.50000000  0.50000000  0.50000000  1
  Sb  Sb2  1  0.65608500  0.00000000  0.16042400  1
  Sb  Sb3  1  0.34391500  0.00000000  0.16042400  1
  Sb  Sb4  1  0.50000000  0.33957600  0.15608500  1
  Sb  Sb5  1  0.33957600  0.84391500  0.50000000  1
  Sb  Sb6  1  0.00000000  0.16042400  0.65608500  1
  Sb  Sb7  1  0.33957600  0.15608500  0.50000000  1
  Sb  Sb8  1  0.50000000  0.33957600  0.84391500  1
  Sb  Sb9  1  0.16042400  0.65608500  0.00000000  1
  Sb  Sb10  1  0.16042400  0.34391500  0.00000000  1
  Sb  Sb11  1  0.00000000  0.16042400  0.34391500  1
  Sb  Sb12  1  0.15608500  0.50000000  0.33957600  1
  Sb  Sb13  1  0.84391500  0.50000000  0.33957600  1
  Sb  Sb14  1  0.15608500  0.50000000  0.66042400  1
  Sb  Sb15  1  0.84391500  0.50000000  0.66042400  1
  Sb  Sb16  1  0.00000000  0.83957600  0.65608500  1
  Sb  Sb17  1  0.83957600  0.34391500  0.00000000  1
  Sb  Sb18  1  0.50000000  0.66042400  0.15608500  1
  Sb  Sb19  1  0.83957600  0.65608500  0.00000000  1
  Sb  Sb20  1  0.00000000  0.83957600  0.34391500  1
  Sb  Sb21  1  0.66042400  0.15608500  0.50000000  1
  Sb  Sb22  1  0.66042400  0.84391500  0.50000000  1
  Sb  Sb23  1  0.50000000  0.66042400  0.84391500  1
  Sb  Sb24  1  0.65608500  0.00000000  0.83957600  1
  Sb  Sb25  1  0.34391500  0.00000000  0.83957600  1
  Ru  Ru26  1  0.25000000  0.25000000  0.25000000  1
  Ru  Ru27  1  0.25000000  0.25000000  0.75000000  1
  Ru  Ru28  1  0.75000000  0.25000000  0.25000000  1
  Ru  Ru29  1  0.25000000  0.75000000  0.25000000  1
  Ru  Ru30  1  0.75000000  0.75000000  0.75000000  1
  Ru  Ru31  1  0.75000000  0.75000000  0.25000000  1
  Ru  Ru32  1  0.25000000  0.75000000  0.75000000  1
  Ru  Ru33  1  0.75000000  0.25000000  0.75000000  1
