# generated using pymatgen
data_LuGe2
_symmetry_space_group_name_H-M   'P 1'
_cell_length_a   4.04295200
_cell_length_b   15.50432200
_cell_length_c   3.88536700
_cell_angle_alpha   90.00000000
_cell_angle_beta   90.00000000
_cell_angle_gamma   90.00000000
_symmetry_Int_Tables_number   1
_chemical_formula_structural   LuGe2
_chemical_formula_sum   'Lu4 Ge8'
_cell_volume   243.54735189
_cell_formula_units_Z   4
loop_
 _symmetry_equiv_pos_site_id
 _symmetry_equiv_pos_as_xyz
  1  'x, y, z'
loop_
 _atom_site_type_symbol
 _atom_site_label
 _atom_site_symmetry_multiplicity
 _atom_site_fract_x
 _atom_site_fract_y
 _atom_site_fract_z
 _atom_site_occupancy
  Lu  Lu0  1  0.00000000  0.10234800  0.75000000  1
  Lu  Lu1  1  0.50000000  0.39765200  0.25000000  1
  Lu  Lu2  1  0.50000000  0.60234800  0.75000000  1
  Lu  Lu3  1  0.00000000  0.89765200  0.25000000  1
  Ge  Ge4  1  0.50000000  0.24746900  0.75000000  1
  Ge  Ge5  1  0.00000000  0.25253100  0.25000000  1
  Ge  Ge6  1  0.00000000  0.44387200  0.75000000  1
  Ge  Ge7  1  0.50000000  0.05612800  0.25000000  1
  Ge  Ge8  1  0.00000000  0.74746900  0.75000000  1
  Ge  Ge9  1  0.50000000  0.75253100  0.25000000  1
  Ge  Ge10  1  0.50000000  0.94387200  0.75000000  1
  Ge  Ge11  1  0.00000000  0.55612800  0.25000000  1
